@<TRIPOS>MOLECULE
RES
2105 2598 1 0 1
SMALL
NO_CHARGES
@<TRIPOS>CRYSIN
   50.0000    50.0000    20.0300    90.0000    90.0000    90.0000  1  1
@<TRIPOS>ATOM
       1 O           39.3280    24.2340     3.1580 O             1 RES     
       2 O            8.4580    48.5390     6.1960 O             1 RES     
       3 O            9.9370    34.3450     9.7080 O             1 RES     
       4 O           27.9310    20.9500     2.9650 O             1 RES     
       5 Si          34.0510    21.9090     6.4800 Si            1 RES     
       6 O           31.4160    17.1410     7.9150 O             1 RES     
       7 O            7.4230    25.4710     6.7820 O             1 RES     
       8 O           47.1120     3.1090     5.5400 O             1 RES     
       9 O           32.8980     7.8050     9.9470 O             1 RES     
      10 Si          38.7810    11.9610     4.5220 Si            1 RES     
      11 O           25.3700     1.5880    12.7280 O             1 RES     
      12 O           28.2200     7.4620    11.4690 O             1 RES     
      13 O           41.5420    22.2820     9.1930 O             1 RES     
      14 OS          31.7550     1.9730    13.4760 OS            1 RES     
      15 Si           1.2140    26.3900     3.6200 Si            1 RES     
      16 O           32.1660    42.1050     9.0280 O             1 RES     
      17 O           26.2930    46.3710     7.6460 O             1 RES     
      18 O           17.5360    25.3840     7.5700 O             1 RES     
      19 O           45.4190    33.1370    12.1080 O             1 RES     
      20 Si          37.4340     4.1390     8.1680 Si            1 RES     
      21 O           35.4360    32.8570     8.7280 O             1 RES     
      22 O           23.7070    24.5910     4.9950 O             1 RES     
      23 Si           7.6290    42.0460    14.5770 Si            1 RES     
      24 Si          18.9430    40.9130    13.6300 Si            1 RES     
      25 O            9.6650    31.9680     5.7910 O             1 RES     
      26 Si          45.4860    22.8860    10.2000 Si            1 RES     
      27 Si          19.9930    18.2280    12.3350 Si            1 RES     
      28 O           24.5250    30.7410     7.9630 O             1 RES     
      29 O           32.6640    41.9310    11.4990 O             1 RES     
      30 O            6.5590    27.3500     5.0100 O             1 RES     
      31 Si           8.9520    33.0600     4.9870 Si            1 RES     
      32 O           40.1130    25.9410     9.7650 O             1 RES     
      33 O           20.6210    37.5380     6.4480 O             1 RES     
      34 Si          24.6920    29.4830     6.9840 Si            1 RES     
      35 Si          19.3940    15.7420     5.6330 Si            1 RES     
      36 O           29.8760    11.7970     6.2890 O             1 RES     
      37 O           37.9360    30.6050     3.1040 O             1 RES     
      38 O           49.3000    43.1650     4.7740 O             1 RES     
      39 O           49.2410    15.4300     8.7790 O             1 RES     
      40 Si          16.0040    25.6960     7.5250 Si            1 RES     
      41 O           10.2360     3.4110     9.6970 O             1 RES     
      42 O           43.4210    28.2730     6.3950 O             1 RES     
      43 O            0.1870    40.6520     3.9740 O             1 RES     
      44 O           11.9330    36.8760     3.0060 O             1 RES     
      45 Si          43.8870     0.3740     7.3530 Si            1 RES     
      46 O           23.3580    12.3080    11.7210 O             1 RES     
      47 OS          46.3330    21.9160    14.2350 OS            1 RES     
      48 Si          25.3870    41.5760    12.4880 Si            1 RES     
      49 O           46.0860    21.2950     7.0170 O             1 RES     
      50 O           21.7340     6.6160     4.3500 O             1 RES     
      51 O           23.6280    38.4180    11.4120 O             1 RES     
      52 O           48.4240    30.3200     6.4430 O             1 RES     
      53 O           14.8410    23.7240    11.1040 O             1 RES     
      54 O           13.8720     7.7270     8.0010 O             1 RES     
      55 O           42.9320    35.6550     5.0210 O             1 RES     
      56 Si          14.9580    22.2990    11.7660 Si            1 RES     
      57 Si           1.3660    23.9370     5.4410 Si            1 RES     
      58 O           17.8410    37.7820    13.0870 O             1 RES     
      59 O            2.1070    45.4170     9.4240 O             1 RES     
      60 Si          23.7100    28.9220    12.3920 Si            1 RES     
      61 O           38.9530    35.4330    11.0830 O             1 RES     
      62 O           18.9750    37.1960     8.6150 O             1 RES     
      63 O           20.4090    49.8920     4.6600 O             1 RES     
      64 O           45.0010    36.9310    13.7540 O             1 RES     
      65 O           46.3590    38.6730     9.4100 O             1 RES     
      66 Si          30.3630    42.9570     3.6210 Si            1 RES     
      67 O           22.5390     0.6400     1.6870 O             1 RES     
      68 Si          47.8950    43.8810     5.0840 Si            1 RES     
      69 O           21.7380    45.4450     8.6830 O             1 RES     
      70 O           29.7260    34.7920    11.3840 O             1 RES     
      71 O           28.0750     5.0820    10.5820 O             1 RES     
      72 O           21.1570    46.3070    14.3630 O             1 RES     
      73 Si          24.9300    47.1050     7.6980 Si            1 RES     
      74 O           49.2420    47.3080     4.1190 O             1 RES     
      75 OS           9.9970    49.0200    15.3030 OS            1 RES     
      76 O           19.3630    42.3460    13.2480 O             1 RES     
      77 O           42.6700    39.8890    13.3630 O             1 RES     
      78 O           30.4550     7.1310    10.0400 O             1 RES     
      79 Si          23.1700     7.2460     4.4180 Si            1 RES     
      80 O           22.6910    40.0080     9.8390 O             1 RES     
      81 O            9.2430    34.4260     5.6130 O             1 RES     
      82 Si          35.9510    45.0840     7.4200 Si            1 RES     
      83 O           13.0020    14.6690    10.0680 O             1 RES     
      84 Si          22.3030    18.2180     3.4300 Si            1 RES     
      85 O           38.6920    44.6600     9.9650 O             1 RES     
      86 Si           5.3750    36.6310     5.4460 Si            1 RES     
      87 O            8.7770    41.0120    14.1070 O             1 RES     
      88 O           31.6610     6.9240     7.6810 O             1 RES     
      89 O            2.1040    44.4950    11.9170 O             1 RES     
      90 O           10.2660     3.2190    12.0870 O             1 RES     
      91 O           33.2710    37.6820     4.3090 O             1 RES     
      92 O            2.5230    37.1640    12.4500 O             1 RES     
      93 O           34.7990    41.8550    10.2240 O             1 RES     
      94 Si          40.6200    48.9560    13.0040 Si            1 RES     
      95 Si          20.4020    45.1770     4.5950 Si            1 RES     
      96 Si          30.0820    17.9670     7.9450 Si            1 RES     
      97 O           30.5780    43.3520     7.2540 O             1 RES     
      98 O           19.3900    32.4830    10.8440 O             1 RES     
      99 O           38.7970    47.0110    10.9690 O             1 RES     
     100 Si          39.4990    19.3740     8.7080 Si            1 RES     
     101 O           42.9490    38.5760     2.4350 O             1 RES     
     102 Si           3.8240    29.5800     7.9930 Si            1 RES     
     103 O           26.1210     8.9700    12.5670 O             1 RES     
     104 O           37.3440     8.4030     7.9400 O             1 RES     
     105 O           15.1020    37.0500     8.0510 O             1 RES     
     106 O            9.6790     3.5510     2.8980 O             1 RES     
     107 O           31.5790    43.9430     3.5960 O             1 RES     
     108 Si          35.8900    12.3490     5.6510 Si            1 RES     
     109 O            4.2640     9.0260     4.7800 O             1 RES     
     110 O           44.0270    15.3980     4.9560 O             1 RES     
     111 O           38.3090    33.0360    11.9640 O             1 RES     
     112 Si          32.8510    29.5180    12.2650 Si            1 RES     
     113 O           22.9350    41.4540     7.9210 O             1 RES     
     114 O           30.0370    49.7050     3.3810 O             1 RES     
     115 Si           3.5000    38.7530     4.4320 Si            1 RES     
     116 O           38.2010    10.6540     7.5920 O             1 RES     
     117 O            9.7210    44.1600     8.4230 O             1 RES     
     118 O           38.4650    25.9060     8.1340 O             1 RES     
     119 O            6.0940    16.2190     8.6880 O             1 RES     
     120 Si          35.5490    30.0700    13.5290 Si            1 RES     
     121 OS          19.4890    24.5230    14.7060 OS            1 RES     
     122 O           41.3560    36.3370    10.0850 O             1 RES     
     123 Si          15.1630    35.7140     7.3010 Si            1 RES     
     124 O            7.6490    16.0520    13.1470 O             1 RES     
     125 O           31.1850     7.8320     5.0870 O             1 RES     
     126 O           24.1550    46.1000     8.5750 O             1 RES     
     127 O            8.2810     6.0230    12.1260 O             1 RES     
     128 Si           5.4560     7.3650    14.2420 Si            1 RES     
     129 O           45.3310    24.4320     9.8760 O             1 RES     
     130 Si          25.6960    37.4590     8.8510 Si            1 RES     
     131 O            2.2070    13.1450    12.8520 O             1 RES     
     132 O           49.6470    15.8970     1.3740 O             1 RES     
     133 Si          15.9380    32.7240     8.1010 Si            1 RES     
     134 Si           7.5200    44.1720    12.3700 Si            1 RES     
     135 O           30.4440    23.0700     5.2210 O             1 RES     
     136 O           46.7050    47.7370     5.0130 O             1 RES     
     137 OS          13.2410    47.3600    14.7350 OS            1 RES     
     138 O           11.4490     7.4630     8.7760 O             1 RES     
     139 Si          23.7950     1.6760     6.8390 Si            1 RES     
     140 Si          29.4070    14.1440    12.7720 Si            1 RES     
     141 O            2.8600    30.0720     9.2260 O             1 RES     
     142 OS          39.9800    19.6340    14.9860 OS            1 RES     
     143 Si          21.9800    30.9280     3.3940 Si            1 RES     
     144 O           24.3500    18.9630     7.6670 O             1 RES     
     145 O            8.7010    16.3040     2.2870 O             1 RES     
     146 Si          22.5320    25.0840     4.1390 Si            1 RES     
     147 O            3.2820     9.1310    10.0050 O             1 RES     
     148 Si          18.5560    33.6670    11.4620 Si            1 RES     
     149 O           39.1110    21.6780     2.3750 O             1 RES     
     150 O           17.6690    29.6720     7.1160 O             1 RES     
     151 Si          20.2150     6.4960     4.7090 Si            1 RES     
     152 Si          26.0590    40.8180     5.8490 Si            1 RES     
     153 O           28.9650    38.7850    10.2090 O             1 RES     
     154 O           40.1500    16.6990     2.3940 O             1 RES     
     155 Si          49.4280     0.5340     8.6050 Si            1 RES     
     156 OS          30.9120     5.7890    15.4930 OS            1 RES     
     157 O            4.7720    21.7590     6.4550 O             1 RES     
     158 O           24.2530    33.2980     7.8670 O             1 RES     
     159 O           26.5570    43.0640    13.5040 O             1 RES     
     160 Si          10.7020    30.7490     6.1000 Si            1 RES     
     161 O           42.6700     5.6730     5.2900 O             1 RES     
     162 Si          14.2700    49.9640    11.6860 Si            1 RES     
     163 O            6.6100    21.1300    10.0300 O             1 RES     
     164 O           49.4510    11.8250    10.8060 O             1 RES     
     165 O           41.1260    13.8420     9.8870 O             1 RES     
     166 O           36.5990    20.8150    13.3960 O             1 RES     
     167 O           45.6810    15.0260     7.0230 O             1 RES     
     168 O           46.7460    26.3010     8.8480 O             1 RES     
     169 O           27.8520    30.1570     5.1630 O             1 RES     
     170 O           14.0080    16.7380     5.3380 O             1 RES     
     171 O           27.0560    41.8310     1.9940 O             1 RES     
     172 Si          13.3490    24.6240     3.2190 Si            1 RES     
     173 O           25.9020    34.8710     4.4290 O             1 RES     
     174 O           20.1230     4.8830     4.5910 O             1 RES     
     175 O           34.1470    15.1210    11.3000 O             1 RES     
     176 Si           1.3730    22.1510     2.9220 Si            1 RES     
     177 O           21.3860     9.3540    14.2790 O             1 RES     
     178 O           49.7900    25.9860     3.1710 O             1 RES     
     179 O           32.2150    27.3290     8.7490 O             1 RES     
     180 O           42.4190    13.5680     5.7240 O             1 RES     
     181 O           37.2140     5.2770     9.2580 O             1 RES     
     182 O           40.9980    23.4960     1.5910 O             1 RES     
     183 O            0.6460    27.9250    13.3760 O             1 RES     
     184 Si           0.8110    19.1590     9.6580 Si            1 RES     
     185 O           30.5330    18.1760     4.0030 O             1 RES     
     186 O           41.9850    33.4010     8.8860 O             1 RES     
     187 O            6.9590    38.8170    12.1150 O             1 RES     
     188 O           23.5630    28.8290     6.0310 O             1 RES     
     189 Si          36.8960     6.1620    10.4730 Si            1 RES     
     190 O           30.9060    42.8970    12.8760 O             1 RES     
     191 Si          36.6590    19.1670    13.0730 Si            1 RES     
     192 O           22.3450    33.7720    10.4280 O             1 RES     
     193 Si          38.7720    49.4470     3.8340 Si            1 RES     
     194 Si          20.6320    28.6790    11.6590 Si            1 RES     
     195 O           29.1060     9.9070     8.0490 O             1 RES     
     196 O            4.3300    16.1090     6.8260 O             1 RES     
     197 Si          46.1970     8.4660     8.6420 Si            1 RES     
     198 O           31.4770    20.9200    10.3250 O             1 RES     
     199 O           23.6740    13.7090     7.1970 O             1 RES     
     200 O           25.7850    16.0530    11.2930 O             1 RES     
     201 Si          25.0720     2.0650    11.2810 Si            1 RES     
     202 O            6.5130    12.3630    10.0980 O             1 RES     
     203 O            9.7480    22.3050    14.0480 O             1 RES     
     204 O           31.2430    26.1310     6.4910 O             1 RES     
     205 O           29.5560    43.4330     4.9100 O             1 RES     
     206 O            5.5290    29.6980     4.5780 O             1 RES     
     207 O           41.2690     0.2290    13.6010 O             1 RES     
     208 Si          12.1290    29.9390     9.9840 Si            1 RES     
     209 OS          37.6540    22.6800    14.4990 OS            1 RES     
     210 O           19.3970     5.5340    14.5810 O             1 RES     
     211 Si          42.9810    42.5610    10.5600 Si            1 RES     
     212 O            0.0220    14.5270     4.1100 O             1 RES     
     213 O           27.5270     6.1070     3.8020 O             1 RES     
     214 O           12.7250     3.7090    12.4850 O             1 RES     
     215 Si           9.4180     2.8310    10.8570 Si            1 RES     
     216 O           31.6600    36.1520    10.5500 O             1 RES     
     217 Si          18.5290    31.0570     7.4200 Si            1 RES     
     218 O           22.9530    45.1110    10.9490 O             1 RES     
     219 O           47.5310    28.1790     7.5710 O             1 RES     
     220 Si          32.4110    11.4260    14.4260 Si            1 RES     
     221 O           22.0970     2.9560     3.5790 O             1 RES     
     222 O           23.9750    47.1680     6.4300 O             1 RES     
     223 Si          35.6350     7.7970     5.0950 Si            1 RES     
     224 OS          28.6390    36.2550    14.3820 OS            1 RES     
     225 Si          15.2560    25.1420    10.4270 Si            1 RES     
     226 O           18.6580    35.0890    10.6360 O             1 RES     
     227 O           20.2660    37.5690    13.8000 O             1 RES     
     228 O           29.7200    18.0810    12.3670 O             1 RES     
     229 O           26.0000    19.8770     4.2940 O             1 RES     
     230 O           41.0400     2.2550     8.1180 O             1 RES     
     231 Si          26.5050     9.2230     5.5330 Si            1 RES     
     232 O           36.9120    40.4130    10.7990 O             1 RES     
     233 O           20.7340    15.2520     4.9050 O             1 RES     
     234 O           19.4960    18.3400    10.8120 O             1 RES     
     235 O           22.9330     2.9620     7.0930 O             1 RES     
     236 O           46.3160    48.9330    13.3120 O             1 RES     
     237 O           25.5590    23.5770     6.4960 O             1 RES     
     238 O           34.9440    48.6380    11.0810 O             1 RES     
     239 Si          25.5740    19.7440    11.9030 Si            1 RES     
     240 O           48.8640    43.1430    13.3700 O             1 RES     
     241 Si          39.8650    13.0490    13.4740 Si            1 RES     
     242 O            0.6750    30.5180    10.5840 O             1 RES     
     243 Si          19.9420     6.1710     7.7720 Si            1 RES     
     244 Si          23.1990    12.0790     3.8050 Si            1 RES     
     245 O           30.8380     5.4450     5.9680 O             1 RES     
     246 O           45.9100     7.5290     7.3860 O             1 RES     
     247 Si           3.6840    12.8230    12.3480 Si            1 RES     
     248 O           18.8100    44.6700    12.2700 O             1 RES     
     249 Si          38.0060    11.3040     9.0220 Si            1 RES     
     250 O           20.9740    36.1480     4.3800 O             1 RES     
     251 Si          21.0440     5.2630    14.6930 Si            1 RES     
     252 O           33.5230    45.4890     2.9160 O             1 RES     
     253 O           28.3750     6.0870    14.6900 O             1 RES     
     254 O           23.1790    31.3580     2.5010 O             1 RES     
     255 Si           9.2410    45.5480     3.3790 Si            1 RES     
     256 Si          34.3650     5.5360    12.3320 Si            1 RES     
     257 Si          39.6160    25.8090     3.1450 Si            1 RES     
     258 O           28.8550    16.9830     8.2740 O             1 RES     
     259 Si          10.8730    25.4460     9.4090 Si            1 RES     
     260 OS           2.9380    27.3670    13.5110 OS            1 RES     
     261 OS          33.3940    45.2420    13.7960 OS            1 RES     
     262 Si          45.8650    31.8970     2.7980 Si            1 RES     
     263 O           43.3990     5.4610    10.9030 O             1 RES     
     264 Si          48.1860     9.2440    12.9390 Si            1 RES     
     265 O           45.3100    32.5620     6.9560 O             1 RES     
     266 O           21.8170    45.9040     5.1190 O             1 RES     
     267 O           42.0710    47.7170     9.4400 O             1 RES     
     268 Si          35.4420    32.0520     7.3890 Si            1 RES     
     269 O           45.1310    14.1860     9.3770 O             1 RES     
     270 O           13.7230     1.3210    12.2550 O             1 RES     
     271 O           28.4180    12.2310     8.3410 O             1 RES     
     272 O           48.1150     3.6560     3.2300 O             1 RES     
     273 O           24.3630    21.2010     2.9820 O             1 RES     
     274 Si           0.4750    39.2730     4.6870 Si            1 RES     
     275 Si          49.8290    17.2240    12.6160 Si            1 RES     
     276 O           11.8830    42.9360     5.5030 O             1 RES     
     277 O           48.1000    18.5900     5.2710 O             1 RES     
     278 OS          36.9350    13.5800    15.2140 OS            1 RES     
     279 Si          13.5760    45.1310     8.3190 Si            1 RES     
     280 O            7.9420    29.6150     8.5510 O             1 RES     
     281 O           19.4490    16.2870     9.2650 O             1 RES     
     282 Si          21.5420    36.5720    14.1650 Si            1 RES     
     283 O           20.8560    44.1370    13.7370 O             1 RES     
     284 O           21.8720    33.0660     6.7000 O             1 RES     
     285 Si          28.1680    32.5160     7.8900 Si            1 RES     
     286 O            9.3260    14.7530     6.8240 O             1 RES     
     287 Si          33.4080    23.7200     8.8770 Si            1 RES     
     288 O           22.0920    20.6210     7.5910 O             1 RES     
     289 O            3.4620     6.4040    10.5250 O             1 RES     
     290 Si          37.3120    24.5400    11.4470 Si            1 RES     
     291 O           26.2140    25.8960    11.8030 O             1 RES     
     292 Si          39.0690    17.2800     3.3630 Si            1 RES     
     293 O           38.6180    34.2620     4.5350 O             1 RES     
     294 Si          37.6040    34.2130     3.3530 Si            1 RES     
     295 O           17.1970    29.7180    13.4790 O             1 RES     
     296 O            0.7970    42.5890     7.7990 O             1 RES     
     297 O           22.2110    13.2820     3.8790 O             1 RES     
     298 OS          40.1380    25.9320    14.3240 OS            1 RES     
     299 O            3.3010    42.0190     7.2270 O             1 RES     
     300 O           42.6960    40.5310     3.8590 O             1 RES     
     301 Si          17.0000     5.1450     8.0970 Si            1 RES     
     302 O           47.1890    25.8760     6.4000 O             1 RES     
     303 O           42.6210    18.3830    10.7470 O             1 RES     
     304 O            8.0760    15.1190     4.6190 O             1 RES     
     305 Si          45.0950    38.4250    10.3500 Si            1 RES     
     306 O           45.8150     0.0320     1.4580 O             1 RES     
     307 Si          12.9980    31.8610     7.7030 Si            1 RES     
     308 O           18.4430    18.7220     8.4660 O             1 RES     
     309 O           24.4370    16.7460     6.5860 O             1 RES     
     310 OS          49.4460    48.7190    14.6740 OS            1 RES     
     311 Si          14.9540    12.9100     6.0530 Si            1 RES     
     312 O           14.9650    18.7910     9.9840 O             1 RES     
     313 O           37.9870    44.9430    12.3720 O             1 RES     
     314 Si          20.9490    47.8360    14.6340 Si            1 RES     
     315 Si          24.7280    26.1950    11.4530 Si            1 RES     
     316 O           47.3630    32.9210     8.3330 O             1 RES     
     317 O           43.0670     2.0600    14.2180 O             1 RES     
     318 O           32.0960    16.7640    11.4900 O             1 RES     
     319 O           34.8860    47.1780    12.9650 O             1 RES     
     320 O           12.7500    15.3170     3.5650 O             1 RES     
     321 O           35.1600    41.7720     5.1760 O             1 RES     
     322 O           46.3020    43.3040     9.1230 O             1 RES     
     323 O           21.4630    14.5980     8.6160 O             1 RES     
     324 O           38.8250    47.9060     3.5560 O             1 RES     
     325 OS          31.5970    22.2610    15.3020 OS            1 RES     
     326 O           33.4650     1.9990     3.7860 O             1 RES     
     327 O           27.3030    14.6550     8.4230 O             1 RES     
     328 Si          47.7840    30.4230    13.0160 Si            1 RES     
     329 Si          28.0700    37.3300    13.3640 Si            1 RES     
     330 O           24.3010    27.5890    11.8080 O             1 RES     
     331 O           29.2100    28.5980    14.2210 O             1 RES     
     332 O           18.4060    47.3430    11.6440 O             1 RES     
     333 O            6.4100    19.6400     5.3440 O             1 RES     
     334 O           19.7470    28.5850    12.9640 O             1 RES     
     335 O            9.7490    47.1610    13.2240 O             1 RES     
     336 Si          48.5780    19.7920     6.0330 Si            1 RES     
     337 Si          13.2120     6.2720     4.4060 Si            1 RES     
     338 Si          38.8670    43.7710     3.9090 Si            1 RES     
     339 O           16.1730    35.9180     6.1790 O             1 RES     
     340 Si          46.9800     2.9410     3.9820 Si            1 RES     
     341 O           16.4210    48.9450     5.2640 O             1 RES     
     342 OS          26.6940    44.9590    15.1340 OS            1 RES     
     343 O           49.7980    38.4060    12.4830 O             1 RES     
     344 Si          45.7850    33.9520    13.4140 Si            1 RES     
     345 Si          28.4320     0.9860     9.0180 Si            1 RES     
     346 OS          13.7120    44.0760    14.1260 OS            1 RES     
     347 OS          18.4220    28.3930    15.1580 OS            1 RES     
     348 O            3.7910    19.2340    12.2220 O             1 RES     
     349 Si          37.3810    14.3720     9.2660 Si            1 RES     
     350 O           39.6090    17.1140     4.7570 O             1 RES     
     351 O           18.9850    23.2030     4.9360 O             1 RES     
     352 O           33.3830    29.5890     8.6530 O             1 RES     
     353 Si           6.5040    34.3540     3.6440 Si            1 RES     
     354 OS          27.0950    38.4120    14.2150 OS            1 RES     
     355 O           10.6390    41.7210    12.3230 O             1 RES     
     356 Si          21.8010    23.4750    10.1490 Si            1 RES     
     357 O           32.1880     2.9370    11.0530 O             1 RES     
     358 O           48.2850    37.1040     8.2830 O             1 RES     
     359 O           41.0400     2.3510    12.7430 O             1 RES     
     360 O           21.6560    15.2860     2.4880 O             1 RES     
     361 Si          23.6110    42.4730     6.8000 Si            1 RES     
     362 Si          39.1900    24.7630     8.9630 Si            1 RES     
     363 O           23.5860    47.4960    12.0860 O             1 RES     
     364 O           35.6550    44.6830    12.9390 O             1 RES     
     365 O           38.8090    10.5150     5.0240 O             1 RES     
     366 Si          24.0620    35.1490    14.2360 Si            1 RES     
     367 Si           7.5450    17.4300    12.2700 Si            1 RES     
     368 O           11.9280    10.0130     4.3980 O             1 RES     
     369 O           29.4870    24.8820    15.0800 O             1 RES     
     370 O           47.4460    12.9720    12.0550 O             1 RES     
     371 O           16.4350     1.3450     6.4240 O             1 RES     
     372 OS          15.1070    41.8100    14.3490 OS            1 RES     
     373 Si          10.3130    11.8920    10.4020 Si            1 RES     
     374 O           11.2070    32.3640    13.4470 O             1 RES     
     375 O           23.7810    46.8420     3.9060 O             1 RES     
     376 O           32.3080    40.5490    13.5250 O             1 RES     
     377 Si          14.6130    39.8490    10.8620 Si            1 RES     
     378 O           23.8970    25.3580    12.4800 O             1 RES     
     379 Si           9.0190     4.2510     4.0900 Si            1 RES     
     380 O           25.1120    14.6520     5.4390 O             1 RES     
     381 Si          44.0140    36.7140     7.7550 Si            1 RES     
     382 O           48.1550    10.7840    12.7930 O             1 RES     
     383 O           30.2540    15.4520    12.2440 O             1 RES     
     384 O           15.1430    39.4530     9.4470 O             1 RES     
     385 Si          26.1430     3.1790     5.5820 Si            1 RES     
     386 O            0.4530     3.1480     6.2690 O             1 RES     
     387 O           46.8350    49.3910    10.9860 O             1 RES     
     388 O            4.0590    36.5990     8.4880 O             1 RES     
     389 Si          21.9700    14.8470     4.0010 Si            1 RES     
     390 Si           5.4830    21.8870    10.9520 Si            1 RES     
     391 O           12.9610    16.0130    12.0790 O             1 RES     
     392 Si          18.5110    45.7810    11.1700 Si            1 RES     
     393 O           26.1120     6.5300    13.1560 O             1 RES     
     394 O           28.9550    11.6580     3.8450 O             1 RES     
     395 O           16.8570     4.4800     9.5660 O             1 RES     
     396 O           12.2070    31.3180     6.4880 O             1 RES     
     397 Si           3.6610    47.9890     3.2660 Si            1 RES     
     398 O            2.3810    38.3960     9.2630 O             1 RES     
     399 OS           2.3710    15.6750    15.1730 OS            1 RES     
     400 O           16.4770    43.0330     5.4360 O             1 RES     
     401 OS          18.8940    14.6420    14.0900 OS            1 RES     
     402 O            8.4010    37.8400     9.9930 O             1 RES     
     403 Si          35.2360    26.0960     9.8200 Si            1 RES     
     404 O           41.6370    48.2940    12.0470 O             1 RES     
     405 O           28.3920    45.5220     9.3080 O             1 RES     
     406 Si           8.7650     9.9060     8.6400 Si            1 RES     
     407 Si          31.1860    40.2060     4.6190 Si            1 RES     
     408 O           33.9620     9.7730    11.3540 O             1 RES     
     409 Si          29.9290    38.9810    11.4220 Si            1 RES     
     410 OS          31.0820    45.2290    13.9070 OS            1 RES     
     411 O           12.6410    40.5630    10.4970 O             1 RES     
     412 O           46.4470    45.4640     8.5700 O             1 RES     
     413 O            3.8460    49.6770    12.4230 O             1 RES     
     414 O           11.9350    26.3070    10.1220 O             1 RES     
     415 O           34.7310    37.0780     7.2970 O             1 RES     
     416 O            9.9940    32.7270     3.7510 O             1 RES     
     417 OS          45.7050    12.9940    13.9360 OS            1 RES     
     418 Si          18.4620    19.7870     7.3990 Si            1 RES     
     419 O           11.2240    35.5340     6.4810 O             1 RES     
     420 O           43.9110    10.6470     6.2750 O             1 RES     
     421 O           45.5200    36.9650     7.4450 O             1 RES     
     422 O           42.3600    47.1630     6.9220 O             1 RES     
     423 O           21.7830    13.9840    12.3470 O             1 RES     
     424 Si           4.6720    42.4670    14.7490 Si            1 RES     
     425 O           44.6130    34.5780    14.3020 O             1 RES     
     426 Si          14.1290    22.9800    14.7380 Si            1 RES     
     427 Si          38.2540    43.6100     8.9210 Si            1 RES     
     428 O           17.5590    27.3140    12.9220 O             1 RES     
     429 O            3.3950    11.3600    11.7150 O             1 RES     
     430 Si           6.1610     4.5190     2.9570 Si            1 RES     
     431 Si          35.9990     4.7990     5.4630 Si            1 RES     
     432 OS          31.9370    24.6540    15.5530 OS            1 RES     
     433 O           40.4460     8.8940    11.2490 O             1 RES     
     434 Si          36.3780     8.7640     9.1110 Si            1 RES     
     435 Si           1.8180    27.6390    12.3530 Si            1 RES     
     436 O           47.8010    37.1470    12.8070 O             1 RES     
     437 OS           6.0320    28.5880    14.6560 OS            1 RES     
     438 O           11.1920    45.1340    13.1630 O             1 RES     
     439 O           48.1120    47.4380    10.4120 O             1 RES     
     440 O           39.5130    20.8610     8.2070 O             1 RES     
     441 O            7.0610     3.7190    13.2660 O             1 RES     
     442 O           26.4280    34.1630    11.4740 O             1 RES     
     443 Si          33.3770     3.5300     3.4640 Si            1 RES     
     444 O           16.2090    28.5900     2.5190 O             1 RES     
     445 Si          47.5000    16.6790    14.5240 Si            1 RES     
     446 O           36.1180    48.2970     8.6890 O             1 RES     
     447 O           46.7490    17.9500     3.0500 O             1 RES     
     448 O           41.6860    42.9810     6.6740 O             1 RES     
     449 O           37.4760    12.5040     5.3120 O             1 RES     
     450 Si          24.7900    13.2300     6.2040 Si            1 RES     
     451 O           38.1530     4.6200    13.3710 O             1 RES     
     452 O            9.6770    32.6350    11.3050 O             1 RES     
     453 Si          33.9690    22.8690     3.4780 Si            1 RES     
     454 O           43.9820    37.9620     9.3120 O             1 RES     
     455 Si          39.8800    10.0190    14.4640 Si            1 RES     
     456 Si          12.2740    34.9140     7.4100 Si            1 RES     
     457 OS          48.1120    31.3340    14.2630 OS            1 RES     
     458 O           25.0010    18.4920    11.1670 O             1 RES     
     459 O            2.7600    24.2130    10.4020 O             1 RES     
     460 O           42.9580    26.1660    11.8200 O             1 RES     
     461 O           45.1440    14.4450    11.7480 O             1 RES     
     462 Si          40.0110    39.8830     8.6920 Si            1 RES     
     463 O           30.9400    26.7240    14.3070 O             1 RES     
     464 O            4.8870    30.6080    12.7110 O             1 RES     
     465 Si          29.8400     5.9120    14.2460 Si            1 RES     
     466 O           36.7400    29.8300     5.2550 O             1 RES     
     467 Si          29.9620     2.8120    14.3510 Si            1 RES     
     468 Si          16.6150    44.7830     8.8650 Si            1 RES     
     469 O           14.1100    11.8590     9.6930 O             1 RES     
     470 O            2.0850    44.1560     6.4310 O             1 RES     
     471 O           39.2760    49.2800    12.1610 O             1 RES     
     472 Si          39.0470    45.4520    11.2560 Si            1 RES     
     473 Si          46.1120    42.6170    10.5030 Si            1 RES     
     474 Si          15.9470     2.3680     7.5480 Si            1 RES     
     475 Si          12.7670    44.5550    12.9780 Si            1 RES     
     476 O            9.2800    23.5000     7.5290 O             1 RES     
     477 O           40.7000    34.4120    12.2590 O             1 RES     
     478 O           37.3970    49.2820    10.3440 O             1 RES     
     479 O           27.2990     9.9210     4.3170 O             1 RES     
     480 OS          38.9710    38.8380    14.4190 OS            1 RES     
     481 O           47.5000    17.2100     9.6140 O             1 RES     
     482 O           10.7770    40.0520     8.7900 O             1 RES     
     483 OS          21.3040     5.7590    16.2490 OS            1 RES     
     484 O           17.1220    19.9280    13.5530 O             1 RES     
     485 Si          24.9320    24.8970     5.9010 Si            1 RES     
     486 Si          46.2280    36.8130    12.7060 Si            1 RES     
     487 OS          17.5710     7.1020    13.6460 OS            1 RES     
     488 OS           4.0240    35.2560    14.7380 OS            1 RES     
     489 O            3.9580    31.7320     3.9260 O             1 RES     
     490 O           30.0340    48.1820     5.4990 O             1 RES     
     491 Si          13.4320    27.8980    13.9180 Si            1 RES     
     492 Si           2.3960     0.3410    12.1610 Si            1 RES     
     493 Si           1.3740    24.8670    10.7920 Si            1 RES     
     494 O           32.8560    14.0160     5.4360 O             1 RES     
     495 Si          10.6450    14.5730    14.5960 Si            1 RES     
     496 O            5.0360    32.8140    11.2680 O             1 RES     
     497 O            4.3950     1.0660     5.6080 O             1 RES     
     498 Si          11.4700    14.6680     9.6650 Si            1 RES     
     499 O           45.4260    12.4360     7.7160 O             1 RES     
     500 Si          39.5160    33.9090    11.3150 Si            1 RES     
     501 O           42.7260    45.9040    11.9400 O             1 RES     
     502 O           21.7830     5.7500    13.3060 O             1 RES     
     503 O            3.4140    40.7410     9.3500 O             1 RES     
     504 O           34.3490    32.3610     3.7950 O             1 RES     
     505 O            4.0670    45.7170    13.0380 O             1 RES     
     506 O           16.5320    25.6030    11.2150 O             1 RES     
     507 O            8.3430    40.2150     9.8420 O             1 RES     
     508 O            4.0360    25.3720     8.7120 O             1 RES     
     509 O           30.6800    45.8030     9.3590 O             1 RES     
     510 O           10.0900    10.7120     6.1550 O             1 RES     
     511 O           19.1940    17.1920     5.2050 O             1 RES     
     512 O           37.1160    48.2080    12.3700 O             1 RES     
     513 OS          21.3010    24.0450    16.2710 OS            1 RES     
     514 Si          11.3670    16.3290    12.1810 Si            1 RES     
     515 O           21.0180    22.6280    14.1260 O             1 RES     
     516 O           35.5170    49.9290     1.5800 O             1 RES     
     517 O            3.1960    13.4610     3.7560 O             1 RES     
     518 O            4.0060    30.3250     6.5690 O             1 RES     
     519 O           39.3020     0.3220     2.5230 O             1 RES     
     520 Si          39.5480    34.3190     5.9030 Si            1 RES     
     521 Si          19.5940    18.6870     4.7920 Si            1 RES     
     522 O           15.5400    11.8900    12.5810 O             1 RES     
     523 OS          37.5660    43.9420    14.5470 OS            1 RES     
     524 Si           3.2760    22.0430     6.8940 Si            1 RES     
     525 O            4.7160    44.8320     2.2930 O             1 RES     
     526 Si          16.4430     3.1290    10.4140 Si            1 RES     
     527 O           34.7450    20.4650     6.8190 O             1 RES     
     528 O           42.7410    49.4860     7.9210 O             1 RES     
     529 O            9.6600    25.8890     8.2980 O             1 RES     
     530 Si          14.1900    40.4600     5.9330 Si            1 RES     
     531 O            2.1890     7.9920     5.7940 O             1 RES     
     532 O           16.4940    21.9160    12.0070 O             1 RES     
     533 O            8.7360    23.7110    12.1360 O             1 RES     
     534 O            9.6740     3.0890     7.3500 O             1 RES     
     535 Si          45.4850     2.3080     9.1260 Si            1 RES     
     536 O           34.5530     1.7420     7.1130 O             1 RES     
     537 Si          47.6950    46.8240     4.1620 Si            1 RES     
     538 O           42.5580    35.6650    13.9000 O             1 RES     
     539 O            9.0940    31.8780     9.0570 O             1 RES     
     540 O           32.8540    11.6640    10.2560 O             1 RES     
     541 O           39.9370    12.6720     5.1830 O             1 RES     
     542 O           42.7870     7.5880     3.9020 O             1 RES     
     543 OS          41.5110    44.6970    13.8950 OS            1 RES     
     544 O           27.3630    49.9370    13.8480 O             1 RES     
     545 Si           3.5110    26.4870     7.6910 Si            1 RES     
     546 O           24.8100    40.6180     2.1530 O             1 RES     
     547 Si          33.1190    31.9260    14.0560 Si            1 RES     
     548 OS          28.0830    19.4000    14.1250 OS            1 RES     
     549 Si          45.3360    48.4560     5.2530 Si            1 RES     
     550 O           15.0890    16.2570    10.7830 O             1 RES     
     551 O            1.7470    25.2300     4.6450 O             1 RES     
     552 O           20.2430    49.6870    11.9420 O             1 RES     
     553 Si           1.9550    42.6290     6.7790 Si            1 RES     
     554 Si          21.5380     3.5220     7.4470 Si            1 RES     
     555 O           17.2980    45.0130    10.2930 O             1 RES     
     556 O           14.1450    39.2150     6.8920 O             1 RES     
     557 O           10.4990    19.3050     7.6740 O             1 RES     
     558 Si          14.9070     7.2060     6.9330 Si            1 RES     
     559 OS          35.9940    28.8700    14.4490 OS            1 RES     
     560 Si          28.6810    25.7310     9.3460 Si            1 RES     
     561 O           35.3300    30.3750     2.9760 O             1 RES     
     562 Si           8.6830    43.2050     7.6990 Si            1 RES     
     563 O           14.0870    29.7210     3.3030 O             1 RES     
     564 O           19.1870    21.2940    12.9720 O             1 RES     
     565 O           33.0820    22.8120    10.2330 O             1 RES     
     566 Si           9.8810    40.5260    12.9850 Si            1 RES     
     567 O           47.5190    36.2220     3.8790 O             1 RES     
     568 Si          28.5250     6.5820    10.1990 Si            1 RES     
     569 O           10.7470    36.0950    11.4710 O             1 RES     
     570 Si          47.4500    17.4220     4.3660 Si            1 RES     
     571 O           28.1610    15.8470     6.3670 O             1 RES     
     572 OS           1.1650    22.8170    14.2730 OS            1 RES     
     573 O           20.9420    35.2100    13.7210 O             1 RES     
     574 O           44.8110     0.9100     8.5730 O             1 RES     
     575 Si          44.9640     1.5540    14.1870 Si            1 RES     
     576 O           18.5750    27.3960     6.6910 O             1 RES     
     577 O           26.1090     3.3020     3.9990 O             1 RES     
     578 Si          42.6060    34.7230     9.4340 Si            1 RES     
     579 Si          45.3720    10.9610     7.0310 Si            1 RES     
     580 O           22.5860    29.5690     3.9380 O             1 RES     
     581 Si          22.7510    32.3970    13.7560 Si            1 RES     
     582 O           46.9910     8.4630    12.3190 O             1 RES     
     583 Si          40.2970    31.3540     6.4800 Si            1 RES     
     584 Si           6.0960    33.9830    10.8440 Si            1 RES     
     585 O           12.7440    30.9830     8.8940 O             1 RES     
     586 O           46.1210     1.2430    12.8700 O             1 RES     
     587 O           26.2930    30.5420     3.2220 O             1 RES     
     588 OS          24.6990    25.6840    14.8190 OS            1 RES     
     589 O            7.8820    24.5560     9.3200 O             1 RES     
     590 O           27.0360    22.2950     8.3600 O             1 RES     
     591 O           25.2950     0.7040    10.3780 O             1 RES     
     592 Si          24.9280    17.5040     7.8380 Si            1 RES     
     593 O           48.6180     4.1440    10.7340 O             1 RES     
     594 O           25.6520    28.5460     7.8160 O             1 RES     
     595 O           19.8470    24.9840     6.4890 O             1 RES     
     596 Si          41.6370    12.8030    10.9200 Si            1 RES     
     597 Si          35.3520     1.3890    12.1150 Si            1 RES     
     598 Si          46.8970    37.7350     7.7620 Si            1 RES     
     599 O           26.2440     7.4510     2.2640 O             1 RES     
     600 O            5.3780    35.8640     6.8210 O             1 RES     
     601 Si          29.6910    10.9870    13.0470 Si            1 RES     
     602 O           45.1740    27.8150     2.8680 O             1 RES     
     603 Si          43.8770    27.3760    11.5510 Si            1 RES     
     604 Si          11.7030    38.3260    14.0660 Si            1 RES     
     605 Si          12.5270     8.5340     8.2720 Si            1 RES     
     606 O            3.5620    28.0480     7.7900 O             1 RES     
     607 O            5.2150    22.8920     2.7460 O             1 RES     
     608 O           46.5290    22.0670     9.2400 O             1 RES     
     609 Si          13.1480    15.3560     5.0550 Si            1 RES     
     610 O           24.9450    29.7810    11.9010 O             1 RES     
     611 O            0.0590    17.7840     9.3110 O             1 RES     
     612 O           19.1170    13.8090     9.2550 O             1 RES     
     613 O            4.0670    37.3420     4.9070 O             1 RES     
     614 O           36.9140    10.2500     9.4460 O             1 RES     
     615 O           35.5640     6.3480     5.5660 O             1 RES     
     616 O           29.1860    38.1350    12.6570 O             1 RES     
     617 Si          31.8730    37.3300     3.6020 Si            1 RES     
     618 O           42.7740     3.8650     8.6890 O             1 RES     
     619 O           49.9610    33.5230     2.2830 O             1 RES     
     620 O           36.2550    26.7060     8.7730 O             1 RES     
     621 Si          14.0130    15.1700    11.1740 Si            1 RES     
     622 O            3.7870    16.7630    12.8830 O             1 RES     
     623 Si          48.5450     5.0490    12.0960 Si            1 RES     
     624 Si          22.1770    15.5760    12.9460 Si            1 RES     
     625 Si          49.6620    41.8330    13.8930 Si            1 RES     
     626 Si          30.7570    28.2600    14.2650 Si            1 RES     
     627 O           40.6880    22.2130     4.0540 O             1 RES     
     628 OS          23.5790    35.9590    15.4950 OS            1 RES     
     629 O           14.5790    32.1970     7.4600 O             1 RES     
     630 O           40.8770    38.5600     8.8240 O             1 RES     
     631 O           24.8340    43.0310     2.6420 O             1 RES     
     632 Si          30.0510    19.2360     5.0320 Si            1 RES     
     633 O           32.2550     8.4950     2.8570 O             1 RES     
     634 Si          10.2670    20.7780    14.2660 Si            1 RES     
     635 O           34.4760    30.9950    14.3700 O             1 RES     
     636 O           23.0200    32.1490    12.2200 O             1 RES     
     637 Si           6.2410    43.4290     9.5200 Si            1 RES     
     638 Si          26.1320    27.2990     4.2450 Si            1 RES     
     639 O           39.7030    43.2250     8.3650 O             1 RES     
     640 O            8.5980    46.3720     2.2240 O             1 RES     
     641 Si          34.6490     3.1510     7.7220 Si            1 RES     
     642 O           15.1550    11.3100     5.9300 O             1 RES     
     643 OS          49.2980    28.8440    15.4250 OS            1 RES     
     644 Si           5.3720    10.0700     4.4590 Si            1 RES     
     645 Si          11.8040    33.5990    14.2240 Si            1 RES     
     646 O           42.3490     7.4910    12.1660 O             1 RES     
     647 O           15.4210    40.4660    12.0290 O             1 RES     
     648 O            5.0060     4.4480     4.0530 O             1 RES     
     649 O           19.4280    45.2850     5.8050 O             1 RES     
     650 O           44.4440    46.5930    10.0370 O             1 RES     
     651 O           49.3310    32.3570     9.5320 O             1 RES     
     652 O           30.1120    26.0840     8.9200 O             1 RES     
     653 O           10.4160     1.0990     2.8170 O             1 RES     
     654 O            5.6430    34.8800     9.6260 O             1 RES     
     655 O           10.6130    29.6900     9.5080 O             1 RES     
     656 O           38.9430    30.5190     6.3560 O             1 RES     
     657 O           10.5100     8.1880     5.4640 O             1 RES     
     658 O           18.0080    49.7870    12.4920 O             1 RES     
     659 O           29.9750    18.5390     6.4630 O             1 RES     
     660 Si          43.5010     6.3350    12.2980 Si            1 RES     
     661 O           31.0460    33.8030     5.5130 O             1 RES     
     662 O            8.9270    11.8520    11.1040 O             1 RES     
     663 O           22.6540     0.6510     6.3860 O             1 RES     
     664 O           45.1230    32.2190     9.7350 O             1 RES     
     665 O           15.4250     8.6330     6.4840 O             1 RES     
     666 O           24.3040    33.2740     3.2250 O             1 RES     
     667 O           49.8890    13.0660     8.7600 O             1 RES     
     668 Si           8.1590    11.0630     5.8820 Si            1 RES     
     669 Si           9.7230     6.6800    12.0750 Si            1 RES     
     670 O            3.9800    43.3720    13.5930 O             1 RES     
     671 Si          11.2500     4.1060    12.8800 Si            1 RES     
     672 Si          28.4790     8.4120     7.7260 Si            1 RES     
     673 Si           0.5120     7.5370    12.0020 Si            1 RES     
     674 O            9.6710     5.6550     4.5980 O             1 RES     
     675 OS          13.4000    24.3310    15.2050 OS            1 RES     
     676 O            0.6430    46.6160     2.2410 O             1 RES     
     677 OS          11.0690    12.9990    14.4340 OS            1 RES     
     678 O           47.4550    13.8010     8.3070 O             1 RES     
     679 O           18.8750    25.6890    11.5620 O             1 RES     
     680 Si           9.6420    29.2860     3.6580 Si            1 RES     
     681 O            6.7420    27.7270     7.4510 O             1 RES     
     682 O           29.2080     1.5190    13.8370 O             1 RES     
     683 Si           7.3690    11.2960    10.8940 Si            1 RES     
     684 OS          31.9450    38.3100    15.3200 OS            1 RES     
     685 Si          30.6730    32.5360     9.5370 Si            1 RES     
     686 O           12.3410    33.3180     7.6750 O             1 RES     
     687 Si           5.5320    36.0130     8.4250 Si            1 RES     
     688 Si          23.0290    43.0570    11.1760 Si            1 RES     
     689 Si          40.9590     8.1710     7.5530 Si            1 RES     
     690 O           19.6480    48.2890    13.7740 O             1 RES     
     691 O           34.4150    22.6970     5.0520 O             1 RES     
     692 O           21.5930     3.0260     9.0560 O             1 RES     
     693 Si          35.2580    14.0110    11.5060 Si            1 RES     
     694 O           15.8700    32.0780     9.6110 O             1 RES     
     695 O           27.1660    18.1990     2.9840 O             1 RES     
     696 O            2.9420    29.6550     4.5650 O             1 RES     
     697 Si          25.2930    10.2740    13.0130 Si            1 RES     
     698 Si          41.6730    43.7280     5.2710 Si            1 RES     
     699 O           39.1920     0.5770     7.9150 O             1 RES     
     700 O           12.7510    19.8360     9.1320 O             1 RES     
     701 O           21.9460    42.2760    10.3200 O             1 RES     
     702 Si          27.4560    43.7230    14.4830 Si            1 RES     
     703 O           14.1980    38.2730     2.9000 O             1 RES     
     704 O           22.6260    36.9100    13.1670 O             1 RES     
     705 OS          14.4700    12.5290    14.5470 OS            1 RES     
     706 Si          32.7010    39.1420    14.1330 Si            1 RES     
     707 O           46.6200    17.8880    14.0150 O             1 RES     
     708 Si          15.9120    40.6950    13.5120 Si            1 RES     
     709 O           29.3360    32.1020     8.8840 O             1 RES     
     710 O           49.7930    10.4860     8.6050 O             1 RES     
     711 Si           6.7470    10.0170    13.5860 Si            1 RES     
     712 O           26.2920    12.6820     9.6340 O             1 RES     
     713 O            9.8200    25.0990    10.5220 O             1 RES     
     714 Si          27.4390    19.6000     3.5680 Si            1 RES     
     715 O            6.6230    14.8530     6.6910 O             1 RES     
     716 O            8.6230    49.0540    10.4420 O             1 RES     
     717 O           44.8180    26.8060    10.4470 O             1 RES     
     718 O           11.7380     9.5000     1.6330 O             1 RES     
     719 O           47.2400    46.8150     2.7000 O             1 RES     
     720 Si           3.0300    44.5360    13.2270 Si            1 RES     
     721 O           34.5170    24.8560     9.2050 O             1 RES     
     722 O           20.2360     9.1000    10.6340 O             1 RES     
     723 O           32.3420    21.8730    12.6260 O             1 RES     
     724 Si          25.7150    41.7100     2.8710 Si            1 RES     
     725 O           34.9960    19.4610     9.2060 O             1 RES     
     726 Si          41.4990    19.5180    11.1150 Si            1 RES     
     727 Si          15.2730    10.2900    12.5260 Si            1 RES     
     728 O           36.2120    18.2560     7.4380 O             1 RES     
     729 O           29.3970    36.5730     9.2700 O             1 RES     
     730 Si          22.5850    10.3320    14.4360 Si            1 RES     
     731 O            5.0300    23.2810    10.2570 O             1 RES     
     732 Si           0.3920    42.2210     4.1890 Si            1 RES     
     733 O            2.2260    26.4020     2.4270 O             1 RES     
     734 O           49.4230    18.8260    12.6940 O             1 RES     
     735 O           27.1160    27.9850     5.1480 O             1 RES     
     736 O           48.3670     9.0130    14.5320 O             1 RES     
     737 Si           8.2650    40.9430     4.4180 Si            1 RES     
     738 O           41.1300    22.0980     6.6650 O             1 RES     
     739 OS          44.2080    17.9240    13.6000 OS            1 RES     
     740 O           45.5570    31.9600     4.3400 O             1 RES     
     741 O            0.1660    19.6860     6.1490 O             1 RES     
     742 Si          33.2720     8.2920    11.3850 Si            1 RES     
     743 O           22.7000     0.6170     4.0170 O             1 RES     
     744 O           13.0960    47.7250     5.9260 O             1 RES     
     745 Si          22.7790     1.7000     2.8520 Si            1 RES     
     746 O           16.3630    13.3470     5.6630 O             1 RES     
     747 O           30.9870    48.2450    10.0420 O             1 RES     
     748 O           37.2390    49.7590     3.5030 O             1 RES     
     749 Si          30.8900    16.7310     3.3720 Si            1 RES     
     750 OS           7.2980    34.3290    14.7320 OS            1 RES     
     751 O           26.4990    44.3450     9.2110 O             1 RES     
     752 O           40.4460    40.7640    14.2890 O             1 RES     
     753 O           49.2220    26.2600     7.9750 O             1 RES     
     754 O            3.4010    39.1840    11.4160 O             1 RES     
     755 O           33.9070    31.6450     7.3760 O             1 RES     
     756 O           43.4510    15.8270    10.1300 O             1 RES     
     757 Si          46.0430    25.0580     5.6030 Si            1 RES     
     758 OS           5.7560     2.8940    15.1750 OS            1 RES     
     759 O            1.8810    26.1950     7.7000 O             1 RES     
     760 O           17.3560     2.2180    11.3970 O             1 RES     
     761 O            7.1550    17.3080     4.0380 O             1 RES     
     762 Si          42.4350    10.2010     5.9260 Si            1 RES     
     763 Si          40.6900     3.0210    11.3890 Si            1 RES     
     764 Si          44.8770    29.4980    13.5630 Si            1 RES     
     765 O           19.3480     0.7980     2.3270 O             1 RES     
     766 Si           5.6850    29.3760    13.3250 Si            1 RES     
     767 O           19.9280    29.8800    10.9250 O             1 RES     
     768 O           19.4570    20.9430     7.8900 O             1 RES     
     769 O           10.7040    13.2600     9.7220 O             1 RES     
     770 Si           0.4770     1.6020     5.9420 Si            1 RES     
     771 O            9.4100     1.3120    10.7100 O             1 RES     
     772 Si          18.7360    17.6360     9.5480 Si            1 RES     
     773 O            5.7520    47.8330    12.9800 O             1 RES     
     774 O           19.8340     7.1440     8.9810 O             1 RES     
     775 Si          18.1230     8.5540     3.6600 Si            1 RES     
     776 Si           8.9940    33.1040    10.0430 Si            1 RES     
     777 O           35.6350    37.2760     4.9160 O             1 RES     
     778 O           43.9320    30.7370     6.0400 O             1 RES     
     779 Si          10.3410    36.8300     3.1460 Si            1 RES     
     780 OS          30.0060    34.1070    13.8750 OS            1 RES     
     781 O           33.7480    33.1240    13.3250 O             1 RES     
     782 Si           7.3310    43.7630     4.9050 Si            1 RES     
     783 O           12.4480    23.4040     3.5910 O             1 RES     
     784 O           46.8580    41.0190     2.4920 O             1 RES     
     785 Si          11.1820    20.0760     8.8680 Si            1 RES     
     786 O           32.3270    36.7830     2.1510 O             1 RES     
     787 Si          26.8970    32.7770    12.0530 Si            1 RES     
     788 OS           9.5190    29.2930    14.2260 OS            1 RES     
     789 Si          26.7620     6.1980    14.6850 Si            1 RES     
     790 O           31.1770    38.7570     3.8720 O             1 RES     
     791 O           42.7610    36.9040     6.8720 O             1 RES     
     792 O            0.1790    45.8030    11.0080 O             1 RES     
     793 O           14.9690    39.8680     4.7060 O             1 RES     
     794 O            9.7750    30.5060     2.5650 O             1 RES     
     795 O            9.0660    14.5570    14.6320 O             1 RES     
     796 Si          26.2080    35.7160    11.4330 Si            1 RES     
     797 OS          31.9000    12.8210    15.0330 OS            1 RES     
     798 O           33.8200     1.8110    12.2470 O             1 RES     
     799 O           32.2410    24.6310     8.4590 O             1 RES     
     800 O           44.9250     6.9980    12.2900 O             1 RES     
     801 Si          10.0470     6.9750     9.0140 Si            1 RES     
     802 O            4.9290    13.9990     8.3470 O             1 RES     
     803 OS           1.2830    41.5700    14.2840 OS            1 RES     
     804 Si          23.0970    34.0080     6.9800 Si            1 RES     
     805 O            8.1090     9.4610    13.9870 O             1 RES     
     806 O           35.3680    49.2480     6.6070 O             1 RES     
     807 O           38.6330     3.1870     8.2330 O             1 RES     
     808 O            9.6790    38.1050     2.4130 O             1 RES     
     809 O           24.3640    25.9410     9.8980 O             1 RES     
     810 Si           1.3860     4.4330     6.3760 Si            1 RES     
     811 O           36.0720    25.4030    10.9870 O             1 RES     
     812 Si          33.3970     0.4560     4.1020 Si            1 RES     
     813 O           47.7770    45.4010     4.5940 O             1 RES     
     814 O           49.6460     0.9140     7.0600 O             1 RES     
     815 Si          49.7490    42.7510     8.8430 Si            1 RES     
     816 O           47.7090    20.8010    12.2820 O             1 RES     
     817 O           21.0710     5.0660     7.7670 O             1 RES     
     818 Si          17.6200     8.2770    12.5210 Si            1 RES     
     819 O           23.8990     8.0890     8.4830 O             1 RES     
     820 O           44.9940     6.8110     5.0230 O             1 RES     
     821 O           38.3840    27.7090     9.6910 O             1 RES     
     822 Si           2.3000    49.5910     9.1770 Si            1 RES     
     823 O           11.0760    17.9080    12.0650 O             1 RES     
     824 Si           2.4870    45.5200     5.7490 Si            1 RES     
     825 O            5.1070    13.1130     2.0220 O             1 RES     
     826 O           17.3130    17.3870    10.0950 O             1 RES     
     827 O           38.8030    18.8680     3.1010 O             1 RES     
     828 O           33.8930    37.3990    11.2720 O             1 RES     
     829 OS          35.5880    37.9490    13.8270 OS            1 RES     
     830 O            5.7350    22.1460    12.4840 O             1 RES     
     831 O           49.2590    31.1290     2.4940 O             1 RES     
     832 OS          32.1490    31.5930    15.2900 OS            1 RES     
     833 Si          30.0550    20.4620     9.8690 Si            1 RES     
     834 O            6.6910    21.9270     4.9560 O             1 RES     
     835 O           17.7340    21.6430     3.5230 O             1 RES     
     836 O           19.7000    45.8050    10.1940 O             1 RES     
     837 OS          49.6900    36.1200    14.0730 OS            1 RES     
     838 O           21.0350    10.2870     8.9720 O             1 RES     
     839 Si           0.3040    11.6260     9.5100 Si            1 RES     
     840 Si          47.8920    39.8850     5.9730 Si            1 RES     
     841 O           11.7290    48.3350    13.3710 O             1 RES     
     842 Si          25.8660    44.0270    10.5700 Si            1 RES     
     843 O            3.1940     0.0020     7.9500 O             1 RES     
     844 O           33.6470    34.4260     4.8550 O             1 RES     
     845 Si          30.7270    42.4020     8.4770 Si            1 RES     
     846 Si          34.7700    37.8690     3.8180 Si            1 RES     
     847 O            0.9940    10.8450     2.6310 O             1 RES     
     848 O           29.2810    20.1280    11.1720 O             1 RES     
     849 O           15.4150     7.7660     1.5950 O             1 RES     
     850 O           18.3850    35.8390     4.7270 O             1 RES     
     851 Si          45.2900    25.8680     9.3100 Si            1 RES     
     852 OS           9.1420    20.1120    15.1910 OS            1 RES     
     853 Si          42.5050    22.3130    10.4510 Si            1 RES     
     854 Si          15.7320    29.5360     3.7050 Si            1 RES     
     855 O           16.8450    36.9720    15.4950 O             1 RES     
     856 Si           9.6690    47.8430     5.4930 Si            1 RES     
     857 O           12.3740    48.9220     8.1810 O             1 RES     
     858 O           24.6360     0.9360     7.9300 O             1 RES     
     859 O           19.8080     3.0050     3.2320 O             1 RES     
     860 OS          45.8700     1.4490    15.4480 OS            1 RES     
     861 O           35.4430     0.0010    12.9260 O             1 RES     
     862 OS          20.8050    15.8240    14.3030 OS            1 RES     
     863 O            6.8130    27.9240     9.9120 O             1 RES     
     864 O           36.6000    38.8690     6.7020 O             1 RES     
     865 Si          10.1060    19.0830    11.7060 Si            1 RES     
     866 O           19.5560    15.3870     7.1320 O             1 RES     
     867 O           13.4780    47.4240     3.3610 O             1 RES     
     868 O           33.1620    11.7520    13.1050 O             1 RES     
     869 O           10.6930    26.6800     1.2410 O             1 RES     
     870 O            7.3390    23.2290    14.0230 O             1 RES     
     871 O           22.8730    22.8310    11.1670 O             1 RES     
     872 O           11.8470    21.1590     4.2940 O             1 RES     
     873 Si          21.9760    12.3940    12.3550 Si            1 RES     
     874 O           12.8560     9.6200     9.3420 O             1 RES     
     875 Si          15.5080    38.7700     3.6850 Si            1 RES     
     876 Si           1.0020    12.9160    13.8750 Si            1 RES     
     877 O           37.2780    42.6790     9.7680 O             1 RES     
     878 O            8.5470    10.3990     4.4330 O             1 RES     
     879 O            4.3780    46.6300     8.9120 O             1 RES     
     880 O           29.9050    45.6210     6.1860 O             1 RES     
     881 Si          33.6080    14.0500     6.7690 Si            1 RES     
     882 O           17.7290    46.9900     5.8550 O             1 RES     
     883 O           13.0630     2.0570     5.8520 O             1 RES     
     884 Si          18.2760    28.5300    13.6040 Si            1 RES     
     885 O           14.9550    20.6690     8.2220 O             1 RES     
     886 O           45.6690    20.0360    13.0090 O             1 RES     
     887 O           26.1070    41.4050     4.3750 O             1 RES     
     888 O           26.7350    26.8440     2.9100 O             1 RES     
     889 O           30.0560     2.9350     5.7890 O             1 RES     
     890 O           45.2980    21.2120     4.8160 O             1 RES     
     891 OS          25.4760     1.0680    15.2540 OS            1 RES     
     892 O            9.9770    10.8910     9.1250 O             1 RES     
     893 Si          15.7720    32.3240    11.1840 Si            1 RES     
     894 O           25.9570    32.4380     4.9530 O             1 RES     
     895 O           49.0270    41.1120    15.1460 O             1 RES     
     896 O           49.6260    38.0500     4.0950 O             1 RES     
     897 Si          27.7560    22.5190     3.0090 Si            1 RES     
     898 O            6.1310    18.0340    12.6980 O             1 RES     
     899 Si          29.6580    12.5070     4.9570 Si            1 RES     
     900 Si          20.6900     3.4160     4.4270 Si            1 RES     
     901 O           18.0140    37.6140     6.4480 O             1 RES     
     902 Si           7.4400    49.6480     6.7860 Si            1 RES     
     903 O           11.4600    42.1930     3.2080 O             1 RES     
     904 O            7.4840    42.2850     4.2520 O             1 RES     
     905 Si          49.3520    36.8980    12.8130 Si            1 RES     
     906 O           20.4090    41.3470     8.5420 O             1 RES     
     907 O           27.7690    15.8050     3.7780 O             1 RES     
     908 O           20.8050    22.5490     6.6200 O             1 RES     
     909 O           47.1940     9.1690     3.9050 O             1 RES     
     910 O           43.1990    32.2580    11.8910 O             1 RES     
     911 O            2.5250     1.7930    12.7490 O             1 RES     
     912 O           15.8720    31.1240     3.5680 O             1 RES     
     913 OS          26.3600     7.3580    15.6490 OS            1 RES     
     914 O           36.9670    23.0980    12.0190 O             1 RES     
     915 O           24.6860     5.7720     8.6550 O             1 RES     
     916 Si           3.3320    17.0320     2.8190 Si            1 RES     
     917 O           46.1960    19.5610     9.2260 O             1 RES     
     918 O            4.2990    11.6510     9.3740 O             1 RES     
     919 Si          43.9040    20.4480     4.8120 Si            1 RES     
     920 O           24.8680    35.8760    12.2940 O             1 RES     
     921 O           23.6580    18.9010     3.6840 O             1 RES     
     922 Si          14.1220    37.2970    12.4430 Si            1 RES     
     923 Si          48.3240     3.2150     9.4960 Si            1 RES     
     924 OS          21.4050     3.7750    14.5830 OS            1 RES     
     925 O            8.7600    45.0380    12.2370 O             1 RES     
     926 Si          35.3480    34.2110     9.5120 Si            1 RES     
     927 Si          47.0210     0.0510    12.4420 Si            1 RES     
     928 OS          37.9700    41.1620    15.2090 OS            1 RES     
     929 O           19.9310    33.8980     5.2210 O             1 RES     
     930 O            7.6010    34.5360     2.5650 O             1 RES     
     931 O           15.1770    44.2300     2.7320 O             1 RES     
     932 O           41.9330    37.9030     4.7360 O             1 RES     
     933 Si           6.2890    17.4690     9.5750 Si            1 RES     
     934 O           25.4360    11.1810    11.7760 O             1 RES     
     935 O           10.2860     1.4390     5.2360 O             1 RES     
     936 O           23.4720    43.8750     7.4750 O             1 RES     
     937 O            6.0160    44.9060     9.1190 O             1 RES     
     938 Si          12.5860     9.9290     3.0050 Si            1 RES     
     939 O            2.3750    15.4810     5.2860 O             1 RES     
     940 O           27.3190    29.2610    12.4900 O             1 RES     
     941 Si           5.0570    13.0090     9.6470 Si            1 RES     
     942 O           18.5420     5.3050     7.9260 O             1 RES     
     943 O           48.6410    43.7890     8.4790 O             1 RES     
     944 O           11.8310    30.9040    11.1600 O             1 RES     
     945 O           35.0670    13.4710     6.3520 O             1 RES     
     946 Si          42.0050    38.9920     3.5840 Si            1 RES     
     947 O            8.0640    40.0100     3.0870 O             1 RES     
     948 Si          28.7100    37.9400     8.8920 Si            1 RES     
     949 Si           1.4570     7.3840     7.0950 Si            1 RES     
     950 O           19.5950    31.6930     6.4870 O             1 RES     
     951 Si          20.2910    10.6330    10.3250 Si            1 RES     
     952 O           49.4830     9.5720     4.3120 O             1 RES     
     953 Si          49.2360    30.9390    10.2300 Si            1 RES     
     954 O           29.8460    41.2250     8.0550 O             1 RES     
     955 Si          19.0220    25.9820     7.4110 Si            1 RES     
     956 O           23.4690    13.3370     9.5400 O             1 RES     
     957 O           36.7630    30.9950    13.0960 O             1 RES     
     958 OS          26.5620    27.7310    14.5880 OS            1 RES     
     959 Si          23.9240    24.9980     8.7160 Si            1 RES     
     960 O           33.2710    37.9530    13.2690 O             1 RES     
     961 O           22.4530    21.1830    13.0020 O             1 RES     
     962 OS          11.9860    33.5310    15.7600 OS            1 RES     
     963 O           25.8540    25.8150     5.0220 O             1 RES     
     964 O           40.4720    31.4740     8.0220 O             1 RES     
     965 Si          49.0790     9.2880     7.9830 Si            1 RES     
     966 O            6.2560     6.2770    13.5190 O             1 RES     
     967 Si          34.2060    40.7980     4.4520 Si            1 RES     
     968 O           38.6100    37.7160     3.1690 O             1 RES     
     969 Si           7.0770    20.2490     8.8390 Si            1 RES     
     970 OS           2.5350     9.1180    14.9460 OS            1 RES     
     971 Si          48.9090    46.5840    11.4290 Si            1 RES     
     972 O           38.3370    26.5730     2.7100 O             1 RES     
     973 Si          34.5520     9.9310     7.0270 Si            1 RES     
     974 Si          20.0360    31.2220    10.1190 Si            1 RES     
     975 O            2.8930    22.2920     2.5400 O             1 RES     
     976 Si          27.6670    16.0710     7.8400 Si            1 RES     
     977 O           28.8060    13.8260     5.0430 O             1 RES     
     978 O           22.2570    24.7790    14.1770 O             1 RES     
     979 Si          24.8180    12.7050    10.9700 Si            1 RES     
     980 Si          48.9160    33.1910     8.2340 Si            1 RES     
     981 Si          19.3220    38.0950    12.5930 Si            1 RES     
     982 Si           1.9380    35.8990    11.6940 Si            1 RES     
     983 OS           5.2630    22.3380    14.8900 OS            1 RES     
     984 O           49.5410    47.6210    12.5080 O             1 RES     
     985 O           45.7460    37.2740    11.2740 O             1 RES     
     986 O           41.7790    30.2140    12.0810 O             1 RES     
     987 O            9.6630    30.5690    12.2770 O             1 RES     
     988 Si          19.9030    14.9890     8.5670 Si            1 RES     
     989 O           25.7710     4.4830     6.4720 O             1 RES     
     990 O           45.7780    22.3830    11.6510 O             1 RES     
     991 Si          10.2130    48.5270    13.7610 Si            1 RES     
     992 O           48.9850    32.2290     4.6010 O             1 RES     
     993 Si          37.7750    39.8480     6.4840 Si            1 RES     
     994 OS          12.0190    38.7130    15.5210 OS            1 RES     
     995 O            8.1810     1.0180     6.6000 O             1 RES     
     996 O            7.9860     9.8280     2.0970 O             1 RES     
     997 OS           1.8350     6.6180    15.5940 OS            1 RES     
     998 Si          29.5330    33.3360     5.4390 Si            1 RES     
     999 O           46.2350    23.4670     5.7550 O             1 RES     
    1000 Si          17.2150    28.3100     6.4770 Si            1 RES     
    1001 O           23.2530     7.7300     5.9480 O             1 RES     
    1002 O           20.2230    41.7250     6.0320 O             1 RES     
    1003 Si          14.1060     2.9270    12.3560 Si            1 RES     
    1004 O           19.4250    26.0820     8.9530 O             1 RES     
    1005 Si           7.2080    48.9900     9.7760 Si            1 RES     
    1006 O           13.0180    37.7460    13.3970 O             1 RES     
    1007 Si          49.0280    16.6680     9.7360 Si            1 RES     
    1008 O           38.7140    39.7180     7.7470 O             1 RES     
    1009 OS           9.2220    24.8510    14.4470 OS            1 RES     
    1010 Si          30.7840    46.8420     5.9520 Si            1 RES     
    1011 O           10.4830    29.8580     4.8470 O             1 RES     
    1012 O           43.3200    41.9460     1.6670 O             1 RES     
    1013 Si          18.2410    12.9120    10.1490 Si            1 RES     
    1014 Si          41.1410    35.1330    13.6130 Si            1 RES     
    1015 O           10.7840    43.1810    10.3760 O             1 RES     
    1016 O           42.2450    42.8690     9.2390 O             1 RES     
    1017 Si          28.5000    22.7930     8.3570 Si            1 RES     
    1018 O            4.2370    21.0310    10.8790 O             1 RES     
    1019 O           31.8450     8.4730    11.9550 O             1 RES     
    1020 O           44.0220    22.2570     9.9290 O             1 RES     
    1021 Si          39.1410    49.3650     6.8780 Si            1 RES     
    1022 O           10.8590    15.6080    13.4570 O             1 RES     
    1023 Si           5.3790     0.2450     4.5480 Si            1 RES     
    1024 O            8.0870    10.3600     7.2540 O             1 RES     
    1025 O           29.9120    43.3700     9.5960 O             1 RES     
    1026 Si          30.9070    25.1600    14.4120 Si            1 RES     
    1027 Si          43.3470    17.3420     9.7490 Si            1 RES     
    1028 O           21.2180    38.5560     4.1250 O             1 RES     
    1029 Si          46.2780    18.2610    10.0530 Si            1 RES     
    1030 O           19.3690    39.5920     7.2420 O             1 RES     
    1031 O           47.3990    13.5140     4.6950 O             1 RES     
    1032 Si          29.8150    33.5000    12.2720 Si            1 RES     
    1033 O           29.7090     4.6080     3.9520 O             1 RES     
    1034 O           24.4790     6.5760     3.9720 O             1 RES     
    1035 Si          45.4830     0.4720     2.9760 Si            1 RES     
    1036 O           42.9600    21.7040     4.9030 O             1 RES     
    1037 O           11.2310    19.0010     2.7990 O             1 RES     
    1038 Si          30.8700     8.1510     3.5780 Si            1 RES     
    1039 OS          16.8270    17.6410    14.8210 OS            1 RES     
    1040 Si          10.7240    44.5390     9.5680 Si            1 RES     
    1041 O           44.5910     3.2770    10.0920 O             1 RES     
    1042 O           40.6880    12.9890    12.1640 O             1 RES     
    1043 O           23.7620    34.0750     5.5450 O             1 RES     
    1044 O           28.5770    19.4320     4.6810 O             1 RES     
    1045 Si          48.8450    32.4750     3.0400 Si            1 RES     
    1046 OS          40.7360    34.0150    14.6210 OS            1 RES     
    1047 O            2.2640    28.7650    11.3580 O             1 RES     
    1048 O            8.7090    18.4050    12.0580 O             1 RES     
    1049 Si          36.6600    29.8290     3.7120 Si            1 RES     
    1050 O           24.6190    21.3980     7.7070 O             1 RES     
    1051 Si          39.7760    27.3710    10.4760 Si            1 RES     
    1052 O           48.4250    30.9370    11.5870 O             1 RES     
    1053 O           36.1050     3.2680     8.2910 O             1 RES     
    1054 O           12.4430     1.3040     8.2790 O             1 RES     
    1055 Si          33.4360    16.4340    10.8380 Si            1 RES     
    1056 Si          30.7530     4.1730     5.0870 Si            1 RES     
    1057 O           10.8410    34.8060    13.8500 O             1 RES     
    1058 O            6.1070    38.0600     5.8620 O             1 RES     
    1059 OS           4.9900    43.2930    16.0260 OS            1 RES     
    1060 O           38.6680    36.4770     8.9480 O             1 RES     
    1061 Si          11.1630     9.6020     5.7720 Si            1 RES     
    1062 O           39.5670    11.5030    13.8690 O             1 RES     
    1063 Si           7.2630    35.2140    13.4180 Si            1 RES     
    1064 OS          29.3670     2.6850    15.8010 OS            1 RES     
    1065 Si          40.3730    14.4940     8.7190 Si            1 RES     
    1066 O           49.6810    32.3530     7.0340 O             1 RES     
    1067 O           14.2170    22.5440    13.1760 O             1 RES     
    1068 O           33.6960    15.5260     7.1440 O             1 RES     
    1069 O           34.6540    49.6130     3.8450 O             1 RES     
    1070 O            0.6790    30.3410     5.3820 O             1 RES     
    1071 Si          19.0850    48.6460    12.2470 Si            1 RES     
    1072 OS           1.4720    11.5150    14.5240 OS            1 RES     
    1073 Si          22.1510     2.9900    10.5480 Si            1 RES     
    1074 O           34.7300    36.8210     2.4400 O             1 RES     
    1075 O            2.4910    18.3390     2.9200 O             1 RES     
    1076 Si          46.3210    41.5570     3.9180 Si            1 RES     
    1077 O           30.9560    10.9060    13.9280 O             1 RES     
    1078 O           20.6750    35.7400     9.5880 O             1 RES     
    1079 O           44.1660    26.3470     8.2340 O             1 RES     
    1080 Si           0.5010    25.4290     7.9210 Si            1 RES     
    1081 O           25.2210    39.4880     5.9300 O             1 RES     
    1082 O           46.3090    35.2350    12.6710 O             1 RES     
    1083 Si          37.1430    14.4360    13.9330 Si            1 RES     
    1084 O           19.1550     7.3510     3.9290 O             1 RES     
    1085 O           24.3180    25.4750     7.2570 O             1 RES     
    1086 O           44.5330    42.4470    10.6150 O             1 RES     
    1087 O           32.8890    37.2560     8.9580 O             1 RES     
    1088 O            1.4300     7.6250    13.2710 O             1 RES     
    1089 Si          10.0770    18.5520     6.3800 Si            1 RES     
    1090 Si          15.4110    12.2030     8.9330 Si            1 RES     
    1091 Si          23.5250    22.0570    12.3530 Si            1 RES     
    1092 O           32.6580    29.0700    10.7970 O             1 RES     
    1093 O           18.9780    11.5120    10.0640 O             1 RES     
    1094 OS          25.6930    19.3670    13.4870 OS            1 RES     
    1095 O           42.1530     9.8200     4.4030 O             1 RES     
    1096 OS          31.5440    17.1520    13.7880 OS            1 RES     
    1097 Si          37.0160    43.9250    13.0280 Si            1 RES     
    1098 O           18.3820     7.7760    11.1990 O             1 RES     
    1099 O           38.9300    21.2260    12.9580 O             1 RES     
    1100 Si          19.9120    25.9010    10.4390 Si            1 RES     
    1101 O           29.4740    12.4970    12.3920 O             1 RES     
    1102 Si          21.2670    39.6860     3.0300 Si            1 RES     
    1103 O           10.3610    44.5950     2.8460 O             1 RES     
    1104 O           19.7400    45.9700     3.4200 O             1 RES     
    1105 Si          18.8430    10.6020     5.8770 Si            1 RES     
    1106 O           11.3070    24.0840     8.6510 O             1 RES     
    1107 O            8.0970    29.2030     4.1690 O             1 RES     
    1108 O           33.8360    10.8010     2.9710 O             1 RES     
    1109 O            1.1100    20.6060     3.1090 O             1 RES     
    1110 Si          46.7980    20.7630     8.3390 Si            1 RES     
    1111 O           12.9400    38.4750     8.8170 O             1 RES     
    1112 Si          29.6600    44.8580    10.0510 Si            1 RES     
    1113 O           11.2120    15.4640     8.3510 O             1 RES     
    1114 Si          39.6190     2.0610     8.6460 Si            1 RES     
    1115 O           19.3910    39.6610    12.7410 O             1 RES     
    1116 O           47.5620     7.4470     5.5700 O             1 RES     
    1117 Si          39.2700    36.7440    10.3940 Si            1 RES     
    1118 O           43.0340    18.0030     8.3440 O             1 RES     
    1119 Si           7.5990    15.1760    14.5160 Si            1 RES     
    1120 Si          31.7660     6.8110     9.2550 Si            1 RES     
    1121 O            2.4310    20.7180     6.6690 O             1 RES     
    1122 Si          41.7730    44.6900    12.3280 Si            1 RES     
    1123 Si          37.5220    22.0300    13.0870 Si            1 RES     
    1124 O           28.3720    33.8490     7.0030 O             1 RES     
    1125 O           12.9090    27.3060    12.5350 O             1 RES     
    1126 Si           4.1990     5.0560    10.8450 Si            1 RES     
    1127 O           39.9540     5.4880     5.1340 O             1 RES     
    1128 OS          20.7270    20.6660    15.7570 OS            1 RES     
    1129 Si           2.1290    14.5270     4.0690 Si            1 RES     
    1130 Si          23.8080     8.7590     7.0580 Si            1 RES     
    1131 O           15.0930     0.7780     4.4410 O             1 RES     
    1132 O           34.8950     4.1750     6.5650 O             1 RES     
    1133 O           34.3920    29.4680    12.5620 O             1 RES     
    1134 Si          15.1170    13.2130    13.2810 Si            1 RES     
    1135 O            3.3300    22.7720     8.3380 O             1 RES     
    1136 O           12.2920    44.5360     9.1110 O             1 RES     
    1137 O            6.9350    20.8710     7.3810 O             1 RES     
    1138 Si           8.2440    37.4110     8.3920 Si            1 RES     
    1139 Si          13.5490    34.3190    11.9030 Si            1 RES     
    1140 Si          19.7110     7.5830    10.4450 Si            1 RES     
    1141 Si          28.6080    15.3720     4.9640 Si            1 RES     
    1142 O           39.9930     4.1720     3.0720 O             1 RES     
    1143 Si          25.0340    32.0940     8.5620 Si            1 RES     
    1144 OS          40.7010     2.1550    15.2440 OS            1 RES     
    1145 Si          20.9400    24.0480    14.7090 Si            1 RES     
    1146 O           43.6290    33.2150     5.0040 O             1 RES     
    1147 Si          11.3430    41.5240     4.6710 Si            1 RES     
    1148 Si          27.0130    13.1390     8.3330 Si            1 RES     
    1149 Si          48.9600    13.6160     4.9470 Si            1 RES     
    1150 O           26.9220    29.1920     9.9540 O             1 RES     
    1151 Si           6.3490    26.5680     6.4490 Si            1 RES     
    1152 O           26.2180     3.1580    10.9840 O             1 RES     
    1153 O           33.2120    16.3800     9.3320 O             1 RES     
    1154 O           22.4110    48.4080    14.1910 O             1 RES     
    1155 O            6.4260    34.7250    12.1420 O             1 RES     
    1156 O           19.1830    48.4110     2.8480 O             1 RES     
    1157 Si           2.8540    46.5740     8.6460 Si            1 RES     
    1158 O           40.5630    35.5950     5.7950 O             1 RES     
    1159 O           33.2630    10.6490     7.6910 O             1 RES     
    1160 O           30.9350    23.7710    13.4950 O             1 RES     
    1161 O           44.8170    49.4930     6.4370 O             1 RES     
    1162 O           15.8050     0.2400    11.7960 O             1 RES     
    1163 Si          29.1690    40.2680     6.9740 Si            1 RES     
    1164 Si           3.3640     3.1370    13.0630 Si            1 RES     
    1165 O           24.2300    32.0940     9.9360 O             1 RES     
    1166 OS          12.1450    28.5980    14.5190 OS            1 RES     
    1167 O           36.0060    14.0500    12.9430 O             1 RES     
    1168 Si           4.1400    31.8930    12.2360 Si            1 RES     
    1169 O           13.9600    35.7890    11.8600 O             1 RES     
    1170 O           10.1560    17.0980     6.7790 O             1 RES     
    1171 O           31.4100    38.4720    11.0010 O             1 RES     
    1172 O           16.3110     9.1870    12.1930 O             1 RES     
    1173 O           49.7160     6.1130    11.9960 O             1 RES     
    1174 Si          46.2190     6.7850     6.0930 Si            1 RES     
    1175 OS          15.5620    23.4400    15.1250 OS            1 RES     
    1176 O           49.4500     8.6740    12.1600 O             1 RES     
    1177 Si          37.3660     3.2600    13.5820 Si            1 RES     
    1178 O            0.5590    24.8310     9.4250 O             1 RES     
    1179 OS          45.0770     3.5510    14.3830 OS            1 RES     
    1180 O           31.0190    12.8100     4.2520 O             1 RES     
    1181 O           42.5120    13.8110     3.3200 O             1 RES     
    1182 O           44.9820    35.0040     3.9540 O             1 RES     
    1183 Si          47.8900    40.3320     9.3920 Si            1 RES     
    1184 O           40.7650    19.2600    12.4870 O             1 RES     
    1185 O           49.3310    34.6780     8.0710 O             1 RES     
    1186 O            3.8620    16.9500     1.4150 O             1 RES     
    1187 O            6.5610     9.2230     3.8240 O             1 RES     
    1188 O           34.6850    12.5290    11.3780 O             1 RES     
    1189 Si          24.1050    39.4900    10.4800 Si            1 RES     
    1190 O           33.2570     0.2650     5.6660 O             1 RES     
    1191 O           22.7900     9.8900     7.1890 O             1 RES     
    1192 O           32.6950    35.6060     6.7950 O             1 RES     
    1193 O            5.9340    28.2390    12.2320 O             1 RES     
    1194 O           29.9530    15.9870     4.5410 O             1 RES     
    1195 Si          45.8740    13.8780     8.0790 Si            1 RES     
    1196 O           34.1640    17.8210    10.9570 O             1 RES     
    1197 O           18.3720    44.3820    14.6580 O             1 RES     
    1198 Si          49.1160    20.2060    11.9690 Si            1 RES     
    1199 O           15.7400    10.8380     8.1330 O             1 RES     
    1200 Si           5.7440    46.3750     9.5310 Si            1 RES     
    1201 O           38.2740    24.3050    10.1730 O             1 RES     
    1202 O           43.1520     1.7600     6.8610 O             1 RES     
    1203 O           24.4440    16.8930     9.2070 O             1 RES     
    1204 Si          47.1230    44.1060     8.0430 Si            1 RES     
    1205 Si          32.3110    13.8020     4.0170 Si            1 RES     
    1206 O           27.0840     0.2090     8.7460 O             1 RES     
    1207 Si          42.5260    24.7440    12.2770 Si            1 RES     
    1208 O           48.5480     9.5350     6.5140 O             1 RES     
    1209 O           32.0830     5.2400     9.5810 O             1 RES     
    1210 Si          30.7770     6.9750     6.3810 Si            1 RES     
    1211 O           32.6560    17.3460     3.5770 O             1 RES     
    1212 Si          22.9830    46.9500     5.2330 Si            1 RES     
    1213 Si          10.7820    22.8880     7.5800 Si            1 RES     
    1214 Si          19.3800    43.8850    13.4490 Si            1 RES     
    1215 Si          28.5620    10.2560     3.2980 Si            1 RES     
    1216 O           39.5970     8.4610     6.8880 O             1 RES     
    1217 O           28.0860    27.0470    12.8440 O             1 RES     
    1218 Si          12.4540     0.0520     9.2110 Si            1 RES     
    1219 O           46.1330    18.2330    11.5320 O             1 RES     
    1220 O           25.1730     9.3400     6.4250 O             1 RES     
    1221 OS          29.9060    14.1580    14.2690 OS            1 RES     
    1222 O           33.3330    44.0330    10.0310 O             1 RES     
    1223 O           41.8390    24.0760     5.2260 O             1 RES     
    1224 Si          37.3600    17.2670     7.9960 Si            1 RES     
    1225 Si          28.2610    28.7300     5.8670 Si            1 RES     
    1226 Si          30.2820     8.1480    12.0040 Si            1 RES     
    1227 O            3.8730     2.3210     7.7110 O             1 RES     
    1228 O            9.8770    49.4910    12.5530 O             1 RES     
    1229 O           14.0220    10.2330    11.5570 O             1 RES     
    1230 Si          22.5800    13.5060     8.3100 Si            1 RES     
    1231 O           49.1180     1.8730     9.3660 O             1 RES     
    1232 OS          10.3530    10.2990    14.1460 OS            1 RES     
    1233 Si          48.9490    14.0960     8.0240 Si            1 RES     
    1234 Si          46.8790     3.8960     6.8860 Si            1 RES     
    1235 O           35.4650    32.8620     6.0240 O             1 RES     
    1236 O           27.1510    37.9040     8.7450 O             1 RES     
    1237 Si          17.7620    23.1290     3.9820 Si            1 RES     
    1238 O           26.4320    17.0710     7.9550 O             1 RES     
    1239 OS          23.7870    28.9780    13.9750 OS            1 RES     
    1240 O           14.9030    22.0870     6.1110 O             1 RES     
    1241 O           16.5420    43.3890     8.1150 O             1 RES     
    1242 O            0.9190    22.9880     4.2150 O             1 RES     
    1243 Si          17.7200    13.2740     4.9340 Si            1 RES     
    1244 O            5.8700     8.7590    13.6460 O             1 RES     
    1245 O            5.1420    42.4580     8.9610 O             1 RES     
    1246 O           34.5830     8.8080     5.8920 O             1 RES     
    1247 O            0.6930    22.6550     1.5560 O             1 RES     
    1248 O           27.9120    44.4110     6.9660 O             1 RES     
    1249 Si          48.7060    12.1020    12.1750 Si            1 RES     
    1250 O           18.3710    13.4360    11.6530 O             1 RES     
    1251 O           40.0080     4.3710    11.6840 O             1 RES     
    1252 O           18.3840    14.6960     5.1130 O             1 RES     
    1253 O            5.2630    46.3220    11.0400 O             1 RES     
    1254 O           47.8390    21.1070     5.3680 O             1 RES     
    1255 Si          26.3970    15.0080    12.4620 Si            1 RES     
    1256 O           42.3170    26.3140     6.2530 O             1 RES     
    1257 O           25.3350     7.2390    10.7060 O             1 RES     
    1258 Si          31.4810    26.0880     8.1040 Si            1 RES     
    1259 O           49.2420    36.2610     5.9950 O             1 RES     
    1260 O           46.9280     2.4810     9.7930 O             1 RES     
    1261 O           36.5390    30.8970     7.4160 O             1 RES     
    1262 O           32.5680    21.7720     6.0700 O             1 RES     
    1263 O            1.2920    19.6120     8.2810 O             1 RES     
    1264 O           24.1240    12.2340     5.0580 O             1 RES     
    1265 Si           3.8400     3.8590     8.0030 Si            1 RES     
    1266 Si           2.7330     7.5870     9.8720 Si            1 RES     
    1267 Si           3.3400    38.4150    12.7900 Si            1 RES     
    1268 OS          17.5840    22.2940    14.2440 OS            1 RES     
    1269 O            7.5060    25.9090    11.4880 O             1 RES     
    1270 Si           8.4160    24.7610     7.8710 Si            1 RES     
    1271 O            1.2370    16.9980    13.2580 O             1 RES     
    1272 O           14.4070     2.7210     7.7180 O             1 RES     
    1273 O           25.0570    40.4720    11.2770 O             1 RES     
    1274 O           21.3450    31.9200     4.4470 O             1 RES     
    1275 Si          11.9350    39.3810     9.6200 Si            1 RES     
    1276 Si          12.9040     2.3990     7.3500 Si            1 RES     
    1277 O           34.6530     4.1580     4.0910 O             1 RES     
    1278 Si          20.6580    32.5660     5.7020 Si            1 RES     
    1279 O            9.9550     6.7670    10.5320 O             1 RES     
    1280 O           18.4200    12.3350    14.1680 O             1 RES     
    1281 O            6.3270    49.7210     5.6860 O             1 RES     
    1282 O           28.0230    23.1170     4.3880 O             1 RES     
    1283 Si          13.5940     1.3770     4.4050 Si            1 RES     
    1284 O           26.0460    12.7870     7.0520 O             1 RES     
    1285 Si           8.1330    39.0510    11.0320 Si            1 RES     
    1286 O           29.3400     0.0210     9.9030 O             1 RES     
    1287 O           20.6290    19.5290    12.8240 O             1 RES     
    1288 O           46.3110    16.6070     5.0460 O             1 RES     
    1289 O           35.1690     9.0720     8.2150 O             1 RES     
    1290 O           22.7640    36.2150    10.5800 O             1 RES     
    1291 O           21.7240     4.2780    11.3080 O             1 RES     
    1292 O           30.1630    19.2540     8.8420 O             1 RES     
    1293 O           10.6230    37.1910    13.7770 O             1 RES     
    1294 OS          39.8690    47.9840    14.0180 OS            1 RES     
    1295 Si          15.8320    17.6140    10.7090 Si            1 RES     
    1296 OS          22.3720    44.6030    15.7930 OS            1 RES     
    1297 O           49.4760    39.6740     5.8810 O             1 RES     
    1298 Si          39.0210    26.4570    13.3240 Si            1 RES     
    1299 O           17.5210    13.0590     3.3260 O             1 RES     
    1300 Si          13.2090    43.8680     5.5150 Si            1 RES     
    1301 OS          42.7060    40.5940    15.8250 OS            1 RES     
    1302 O           36.7560    28.3420     3.2740 O             1 RES     
    1303 O            0.1930     8.2110     7.5440 O             1 RES     
    1304 O           40.9160     8.9220     9.0310 O             1 RES     
    1305 OS           6.2970    11.2340    14.4080 OS            1 RES     
    1306 OS           7.4210    16.1880    15.7340 OS            1 RES     
    1307 Si          35.5870    48.5000    12.5270 Si            1 RES     
    1308 OS          46.7670    15.3050    15.7320 OS            1 RES     
    1309 O           32.5230    30.9610    12.8910 O             1 RES     
    1310 Si          26.3850    30.8540     4.7940 Si            1 RES     
    1311 Si          21.2500     0.8260    12.5180 Si            1 RES     
    1312 O            8.7310    35.5060    12.9560 O             1 RES     
    1313 O           21.1900    32.7920    13.7720 O             1 RES     
    1314 O           28.7420    44.1770    13.7490 O             1 RES     
    1315 O           27.9370    28.7950     7.4510 O             1 RES     
    1316 Si          32.3110     1.7010    11.9900 Si            1 RES     
    1317 O           20.8080     3.1280     6.0350 O             1 RES     
    1318 O           40.3960    19.4270    10.0400 O             1 RES     
    1319 O            8.1620    44.6540     3.9810 O             1 RES     
    1320 O           31.2400    47.1840     7.4300 O             1 RES     
    1321 O           23.7120     2.8520    10.9510 O             1 RES     
    1322 Si          21.9530    49.8670     5.1650 Si            1 RES     
    1323 O           28.4080    32.9060    12.4150 O             1 RES     
    1324 Si           2.6000    39.6720    10.1250 Si            1 RES     
    1325 Si          14.2540    20.1500     9.5970 Si            1 RES     
    1326 Si          33.7110    11.3420    11.5940 Si            1 RES     
    1327 O            2.3200    36.0940    10.2110 O             1 RES     
    1328 Si          33.6340    36.2480     7.9020 Si            1 RES     
    1329 Si          41.6060     1.6380    14.0500 Si            1 RES     
    1330 O           38.0030    27.3230    14.0780 O             1 RES     
    1331 O           10.7800     5.6640    12.5930 O             1 RES     
    1332 O           24.1490    43.2310    10.0890 O             1 RES     
    1333 O           43.1390    28.5830    10.8060 O             1 RES     
    1334 O           47.2410     5.9820    11.9870 O             1 RES     
    1335 Si          13.1380    10.7930    10.3950 Si            1 RES     
    1336 O           17.1380    33.0670    11.5390 O             1 RES     
    1337 Si          26.4910    29.8150    11.3490 Si            1 RES     
    1338 O           18.5480    12.0030     5.4170 O             1 RES     
    1339 O           31.5450    35.9710     4.5650 O             1 RES     
    1340 OS          44.7380    47.6000    14.9660 OS            1 RES     
    1341 Si           0.7740    47.0520     3.7350 Si            1 RES     
    1342 O            2.5520     7.5940     3.3250 O             1 RES     
    1343 Si          45.9920    32.1560     8.3110 Si            1 RES     
    1344 O           44.3380    46.0900     7.4270 O             1 RES     
    1345 Si          43.0130    29.5670     5.5960 Si            1 RES     
    1346 Si          43.2570     4.0900    10.1390 Si            1 RES     
    1347 O            6.7530    10.6080    12.1240 O             1 RES     
    1348 Si          27.4220     3.6870    10.1520 Si            1 RES     
    1349 OS          48.3360    17.2730    15.7300 OS            1 RES     
    1350 O           17.8060     0.4220     4.2120 O             1 RES     
    1351 O           38.2740     6.0910    11.2360 O             1 RES     
    1352 O            4.5930    39.7580     5.1360 O             1 RES     
    1353 Si          28.9100     1.9180     6.1170 Si            1 RES     
    1354 O           11.7560     6.7500     4.0410 O             1 RES     
    1355 Si          24.7800    37.9610     5.9250 Si            1 RES     
    1356 O            9.0370     8.2650     8.6630 O             1 RES     
    1357 O           37.7560    32.9340     2.4400 O             1 RES     
    1358 O            4.5950    49.1400    14.5170 O             1 RES     
    1359 O           24.6140    21.0140    11.8510 O             1 RES     
    1360 O           22.9150    25.2500     2.6540 O             1 RES     
    1361 O           13.2480    46.0200    12.6720 O             1 RES     
    1362 O           10.7970    47.4620     6.5500 O             1 RES     
    1363 Si          21.8370    41.1810     9.1520 Si            1 RES     
    1364 O            9.1480     7.9230     3.5290 O             1 RES     
    1365 Si          40.5370     9.9940    10.0790 Si            1 RES     
    1366 O            5.7350     5.3190    11.2190 O             1 RES     
    1367 O            1.9570    38.9090     4.9630 O             1 RES     
    1368 O           39.2870    40.1540    10.0700 O             1 RES     
    1369 O            3.8470    17.0590     4.3490 O             1 RES     
    1370 O           17.8950    41.6230     7.1700 O             1 RES     
    1371 Si          41.1600    32.1080     9.2800 Si            1 RES     
    1372 Si           7.5300    18.7090     4.5500 Si            1 RES     
    1373 O           39.2430    10.7900     9.7430 O             1 RES     
    1374 O           38.8950    14.7690     9.3090 O             1 RES     
    1375 O            6.8580    36.6660    13.7220 O             1 RES     
    1376 Si          32.5590    37.3940    10.4550 Si            1 RES     
    1377 O           36.1270    46.5280     6.8370 O             1 RES     
    1378 O           35.6710     7.5290     3.6010 O             1 RES     
    1379 Si          41.2410     5.5420     6.0670 Si            1 RES     
    1380 O           44.3530    47.2570     5.2990 O             1 RES     
    1381 O           21.0960    11.5510    11.3260 O             1 RES     
    1382 O           36.3140    47.7270     2.8030 O             1 RES     
    1383 Si           3.2690     7.8770     4.6890 Si            1 RES     
    1384 Si          44.3260    32.8360    10.9620 Si            1 RES     
    1385 O            5.9080    44.4830     4.7470 O             1 RES     
    1386 O           37.8670    48.5510     6.9750 O             1 RES     
    1387 Si          47.7890    29.7170     7.8140 Si            1 RES     
    1388 O           10.5360    45.8010    10.8160 O             1 RES     
    1389 O           30.0420     6.9110     3.1560 O             1 RES     
    1390 O           29.3280    25.3040     5.3200 O             1 RES     
    1391 O            2.6590     4.1220     4.7300 O             1 RES     
    1392 O            3.6920    39.0040     2.9030 O             1 RES     
    1393 O           46.0630     7.6860    10.0550 O             1 RES     
    1394 O           16.5760    13.7940    13.5320 O             1 RES     
    1395 Si          42.8980    39.7550    11.7930 Si            1 RES     
    1396 Si          44.6300    32.1160     5.5620 Si            1 RES     
    1397 Si           6.6730    28.6420     4.1830 Si            1 RES     
    1398 OS          13.7190    26.7830    15.1490 OS            1 RES     
    1399 O           35.2920    12.1580     4.2350 O             1 RES     
    1400 O           23.1660    15.8090     4.5290 O             1 RES     
    1401 O           36.2370    33.6100    13.1820 O             1 RES     
    1402 O            7.7920    19.5000     3.2450 O             1 RES     
    1403 Si          39.0220    39.1650     3.7950 Si            1 RES     
    1404 O           38.6900    39.3440     5.2950 O             1 RES     
    1405 Si          20.5840    46.4850     9.0350 Si            1 RES     
    1406 Si          26.1220     6.8770     3.7100 Si            1 RES     
    1407 O           20.6050    27.2480    10.9330 O             1 RES     
    1408 O           42.4750    43.0040     4.0240 O             1 RES     
    1409 O           48.6060    16.6050     3.7510 O             1 RES     
    1410 O           31.7590    28.7610    13.1040 O             1 RES     
    1411 O           17.4440    10.2380     6.5740 O             1 RES     
    1412 O           29.8050     9.3610     3.5760 O             1 RES     
    1413 O           10.0160     7.8800    15.3240 O             1 RES     
    1414 O           24.9300     2.2730     5.9240 O             1 RES     
    1415 Si          31.2540    22.1560    13.7340 Si            1 RES     
    1416 O           28.3520    10.3970     1.7180 O             1 RES     
    1417 O           45.0480    49.2860     3.9300 O             1 RES     
    1418 O           48.9510    41.4400     9.0160 O             1 RES     
    1419 Si          23.2200    44.8880     8.7860 Si            1 RES     
    1420 O           46.5110    30.6330     8.0910 O             1 RES     
    1421 Si           2.9310    20.3950    11.4460 Si            1 RES     
    1422 O           37.0440    36.4570     7.0990 O             1 RES     
    1423 O           23.2340    45.3400    13.3730 O             1 RES     
    1424 Si           4.5790    17.8720    12.0130 Si            1 RES     
    1425 O           31.9420    31.6430     9.0490 O             1 RES     
    1426 Si          20.8980    21.6300     7.9010 Si            1 RES     
    1427 O           20.6810    24.5750    10.5290 O             1 RES     
    1428 Si          49.8680    39.7510    11.6200 Si            1 RES     
    1429 O           46.8890    41.2540    10.2250 O             1 RES     
    1430 OS          27.9750    42.7650    15.5640 OS            1 RES     
    1431 Si          41.9310    29.5470    10.6970 Si            1 RES     
    1432 O            0.9740     5.9620     6.5700 O             1 RES     
    1433 O           15.6560    34.3010     8.0550 O             1 RES     
    1434 O           11.1760    49.7570    10.1540 O             1 RES     
    1435 O           16.9850    20.3870     6.9930 O             1 RES     
    1436 O           21.1540    22.3680     9.2110 O             1 RES     
    1437 Si           7.0370     4.9610    12.2210 Si            1 RES     
    1438 O            2.4470     0.3440    10.6000 O             1 RES     
    1439 Si          34.4530    45.6960    12.7250 Si            1 RES     
    1440 O           35.4760     0.9680    10.6270 O             1 RES     
    1441 O           36.0920     3.5090    14.4360 O             1 RES     
    1442 O           38.3100    16.9160     6.8450 O             1 RES     
    1443 Si          49.5990    10.9130     3.3680 Si            1 RES     
    1444 O           30.3820    40.4390    11.8390 O             1 RES     
    1445 O            2.3780    48.0490     9.1800 O             1 RES     
    1446 O           11.9200    35.5030     8.8340 O             1 RES     
    1447 Si          11.6610    42.2820    11.3350 Si            1 RES     
    1448 O           16.2840     2.2140     9.1100 O             1 RES     
    1449 O           28.8800    23.1380     6.8910 O             1 RES     
    1450 Si          15.1530     8.2330     3.0780 Si            1 RES     
    1451 O           37.6080    16.6840     3.1480 O             1 RES     
    1452 O           16.5280    23.4710     4.8550 O             1 RES     
    1453 O            2.0400    19.3430    10.6480 O             1 RES     
    1454 O           26.6770    32.2300     8.4070 O             1 RES     
    1455 O           34.8490    45.1810     8.5100 O             1 RES     
    1456 O           44.2890    39.3050    11.3820 O             1 RES     
    1457 O           33.8490    20.4930    11.2560 O             1 RES     
    1458 O           22.5550    39.5800     2.1820 O             1 RES     
    1459 O           42.6690    41.1440    11.1220 O             1 RES     
    1460 O            1.5370    26.3480    11.4820 O             1 RES     
    1461 O           31.1460    46.0030     2.2060 O             1 RES     
    1462 Si          28.9500    49.9680    13.8490 Si            1 RES     
    1463 O            6.7110    37.0250     8.4600 O             1 RES     
    1464 O           40.4520    26.0420     4.4160 O             1 RES     
    1465 Si           1.4310    29.3570     4.3530 Si            1 RES     
    1466 Si          29.4410    44.1440     6.3630 Si            1 RES     
    1467 Si          34.5620    37.2000    12.6940 Si            1 RES     
    1468 O           15.4150    17.9690     3.7480 O             1 RES     
    1469 O           48.6890    29.9460     9.1440 O             1 RES     
    1470 Si          19.7040    35.1190     4.3010 Si            1 RES     
    1471 O           24.8300    49.2830    13.5330 O             1 RES     
    1472 Si           9.2350    40.2780     8.5050 Si            1 RES     
    1473 O           10.1700    22.6780     3.4770 O             1 RES     
    1474 O           28.0260    48.4980     3.9550 O             1 RES     
    1475 Si          10.2590     7.0960     4.3300 Si            1 RES     
    1476 Si          10.7680     0.3680     4.1590 Si            1 RES     
    1477 O            7.4330    33.4430    10.3300 O             1 RES     
    1478 O           37.5930    12.8270     9.0240 O             1 RES     
    1479 O           39.2760    49.7930     5.2960 O             1 RES     
    1480 Si          41.8360    40.0350    14.6450 Si            1 RES     
    1481 Si          40.4220    22.1860     8.0240 Si            1 RES     
    1482 O           41.5440    30.2860     5.8490 O             1 RES     
    1483 Si          15.1180    23.4980     5.5180 Si            1 RES     
    1484 OS          31.2930    29.1530    15.5050 OS            1 RES     
    1485 O           37.2250    44.6220     8.1630 O             1 RES     
    1486 Si          37.4620    29.9450     6.6480 Si            1 RES     
    1487 O           28.2940     2.3970     9.6980 O             1 RES     
    1488 Si          49.9060    16.3460     2.8790 Si            1 RES     
    1489 Si          49.7400    49.0190    13.2010 Si            1 RES     
    1490 O            2.1370    21.5170    12.1680 O             1 RES     
    1491 O            2.7220    39.5190    13.6440 O             1 RES     
    1492 Si          23.4490    48.7390    13.0610 Si            1 RES     
    1493 O           43.6060    34.1830    10.4770 O             1 RES     
    1494 Si          40.0440    22.8680     2.7750 Si            1 RES     
    1495 Si          30.3540    49.4740    11.0060 Si            1 RES     
    1496 O           10.4660    28.0500     3.3230 O             1 RES     
    1497 O           43.5030    29.4090     4.0760 O             1 RES     
    1498 O           12.3350    34.3870    10.9070 O             1 RES     
    1499 Si          30.2830    35.4870    10.0540 Si            1 RES     
    1500 O            1.5180     7.7760    10.8100 O             1 RES     
    1501 O           13.9350    48.6380    12.4890 O             1 RES     
    1502 O           11.8470    15.4370     5.8870 O             1 RES     
    1503 Si          36.3330    41.9210    10.7280 Si            1 RES     
    1504 Si          35.4250    49.3560     9.7630 Si            1 RES     
    1505 O           20.1260    10.3950     6.6900 O             1 RES     
    1506 O           42.1540     3.4420    10.9540 O             1 RES     
    1507 O           34.3070    45.7400    11.1810 O             1 RES     
    1508 Si          28.9580    19.7090    12.6810 Si            1 RES     
    1509 Si           6.1900     2.5090    13.7400 Si            1 RES     
    1510 O           13.5450     2.5430     3.3690 O             1 RES     
    1511 Si          10.8420    26.5980     2.8430 Si            1 RES     
    1512 Si          20.2770    23.7320     5.6520 Si            1 RES     
    1513 Si          14.4350    38.4700     8.2500 Si            1 RES     
    1514 O           14.3810    38.4590    11.4540 O             1 RES     
    1515 Si          40.9010     7.9910    12.3730 Si            1 RES     
    1516 Si          19.8480     9.1710    14.5010 Si            1 RES     
    1517 Si           4.0140    12.4090     2.8490 Si            1 RES     
    1518 O           46.4900     5.3760     6.6270 O             1 RES     
    1519 Si          23.8000    24.7180    13.9410 Si            1 RES     
    1520 O           43.7220     5.6280     2.8890 O             1 RES     
    1521 O            9.7740     8.0690    12.8280 O             1 RES     
    1522 O           11.2780    22.8880     6.1010 O             1 RES     
    1523 Si          34.9060    19.1140     7.6960 Si            1 RES     
    1524 Si          20.9400    21.1020    13.9370 Si            1 RES     
    1525 O           14.3030     7.0030     3.5270 O             1 RES     
    1526 O            7.6360     4.7540     3.4860 O             1 RES     
    1527 O            1.1770    36.5940     7.9670 O             1 RES     
    1528 O           11.1080    39.5610    13.4330 O             1 RES     
    1529 Si          41.8900    36.6090     5.6030 Si            1 RES     
    1530 Si           8.3270    24.6850    10.8860 Si            1 RES     
    1531 O           46.1650    30.2530    12.9010 O             1 RES     
    1532 Si          48.5580    37.0190     4.7550 Si            1 RES     
    1533 O           18.0280    24.1480     2.7820 O             1 RES     
    1534 O           38.2120    40.3700     3.1680 O             1 RES     
    1535 O           13.2290    18.9340     4.1960 O             1 RES     
    1536 Si          46.3700    21.4260    12.7990 Si            1 RES     
    1537 Si           2.5850    16.6810    13.9840 Si            1 RES     
    1538 O            1.5240    42.1600     5.3490 O             1 RES     
    1539 O           34.2080    41.4020     2.9950 O             1 RES     
    1540 O            9.9340    30.2440     7.3410 O             1 RES     
    1541 O            2.0630    15.5610     2.9380 O             1 RES     
    1542 Si          27.0240    28.3330     8.6310 Si            1 RES     
    1543 O           38.5380    40.3870    12.5310 O             1 RES     
    1544 O           35.8430     5.7330    11.5410 O             1 RES     
    1545 O           27.5350     2.5990     5.9240 O             1 RES     
    1546 Si          43.6470     6.3850     4.3100 Si            1 RES     
    1547 O           42.4490    45.0810     5.6010 O             1 RES     
    1548 OS          32.9010    10.6860    15.7000 OS            1 RES     
    1549 O           38.6840    34.5900     7.1850 O             1 RES     
    1550 Si          43.7680    26.7680     6.7440 Si            1 RES     
    1551 O           20.0360    34.2170    15.6750 O             1 RES     
    1552 Si          42.4550    31.3330    13.0540 Si            1 RES     
    1553 O           47.2250    26.1170     2.2900 O             1 RES     
    1554 O            4.9090    17.5310    10.4690 O             1 RES     
    1555 O           28.7750     5.2600     1.7050 O             1 RES     
    1556 Si          31.4390    21.9590     5.0050 Si            1 RES     
    1557 Si          21.4930    10.7350     7.5580 Si            1 RES     
    1558 O           13.9710     6.4620     5.8890 O             1 RES     
    1559 O           33.0330    13.1450     8.0570 O             1 RES     
    1560 Si          34.9240    33.4730     4.7240 Si            1 RES     
    1561 O           17.3600    41.1060    13.5630 O             1 RES     
    1562 OS          26.3210    32.7020    13.5690 OS            1 RES     
    1563 Si          31.5440    41.4570    12.4750 Si            1 RES     
    1564 O           25.4890    13.7300    12.0520 O             1 RES     
    1565 Si          41.1940    25.4280     5.6740 Si            1 RES     
    1566 OS          38.8210     8.9780    15.0080 OS            1 RES     
    1567 Si          25.0190    33.6200     4.5810 Si            1 RES     
    1568 OS          23.1240    10.3070    15.9810 OS            1 RES     
    1569 O           25.8520    37.3180     4.9610 O             1 RES     
    1570 O           26.2680    22.5560     2.5550 O             1 RES     
    1571 O           33.7020     3.5210     8.8710 O             1 RES     
    1572 Si          49.5320    36.2110     7.5480 Si            1 RES     
    1573 O            7.9020    12.8950     5.8120 O             1 RES     
    1574 Si          32.6620    21.5750    11.0900 Si            1 RES     
    1575 Si          41.8410    37.7970     9.8630 Si            1 RES     
    1576 O           24.8970    38.6820     9.4090 O             1 RES     
    1577 O           19.4320    30.9940     8.6450 O             1 RES     
    1578 O           23.0340     6.4600    10.7360 O             1 RES     
    1579 Si           6.1230    21.0220     6.0700 Si            1 RES     
    1580 O           26.2580     7.8970     4.8800 O             1 RES     
    1581 O           24.7020    27.8820     4.0000 O             1 RES     
    1582 O            6.7870    43.4910    11.0880 O             1 RES     
    1583 O            4.7200    26.2960     6.7230 O             1 RES     
    1584 O           37.7030    28.5370     7.3720 O             1 RES     
    1585 O           34.9560    33.9470    11.0150 O             1 RES     
    1586 O           14.4000    21.2030    10.7780 O             1 RES     
    1587 OS          17.2170    24.9120    13.6390 OS            1 RES     
    1588 O            4.4340    46.6510     3.6400 O             1 RES     
    1589 O           30.7400    41.4030     3.7310 O             1 RES     
    1590 O            4.3840    13.3880    11.0640 O             1 RES     
    1591 O           22.1030    11.6210    13.7130 O             1 RES     
    1592 Si          31.4340    47.1230     9.0250 Si            1 RES     
    1593 O           36.8030    42.6740    12.0850 O             1 RES     
    1594 Si          22.1270    35.1590     9.6950 Si            1 RES     
    1595 O            3.8970     7.1550    14.0880 O             1 RES     
    1596 Si           4.3300    41.3140     8.1820 Si            1 RES     
    1597 Si          10.1830    35.9490    12.9900 Si            1 RES     
    1598 O           40.7490    28.5730    10.2950 O             1 RES     
    1599 O           32.6930    40.5850     4.9870 O             1 RES     
    1600 O           31.9860     3.9110     4.1460 O             1 RES     
    1601 O           45.5510     9.8530     8.1410 O             1 RES     
    1602 Si          30.2600    26.5190     5.2240 Si            1 RES     
    1603 Si          30.8330    16.8930    12.4020 Si            1 RES     
    1604 O           33.2690     3.5440     1.8200 O             1 RES     
    1605 Si          33.1600    28.3150     9.5480 Si            1 RES     
    1606 O           44.0770    47.9320    12.2840 O             1 RES     
    1607 O           47.5480    38.0060     5.6180 O             1 RES     
    1608 Si          37.6450    27.2860     8.3550 Si            1 RES     
    1609 Si          17.1250    18.3300    13.4100 Si            1 RES     
    1610 O            7.1940    24.1080     3.5390 O             1 RES     
    1611 Si          16.4750     0.4530     5.0370 Si            1 RES     
    1612 O           19.0150    33.9640    12.9490 O             1 RES     
    1613 O           48.2660    28.9640    13.3060 O             1 RES     
    1614 Si          13.7360    46.8480     4.7960 Si            1 RES     
    1615 O           45.7160     3.1720     7.7260 O             1 RES     
    1616 O           47.2460    43.8840     6.4930 O             1 RES     
    1617 Si          22.0170    45.0380    14.2880 Si            1 RES     
    1618 O           33.8920     7.0090    12.1530 O             1 RES     
    1619 Si          39.0750     5.0900     3.8950 Si            1 RES     
    1620 O            7.5480    21.7370     2.2120 O             1 RES     
    1621 Si           8.7090    29.5450    12.8640 Si            1 RES     
    1622 O           23.3460    33.7330    14.3400 O             1 RES     
    1623 O           38.7150    11.9880     2.8450 O             1 RES     
    1624 O           23.8410    10.0350    13.5690 O             1 RES     
    1625 O           17.3960    45.5620     7.7220 O             1 RES     
    1626 Si          25.4570     0.0150     8.9280 Si            1 RES     
    1627 O           26.8410    31.3830    11.3970 O             1 RES     
    1628 Si           6.6870    28.7520     8.6050 Si            1 RES     
    1629 OS          43.8080    36.4830    16.0540 OS            1 RES     
    1630 O           22.9350     8.4130     3.4420 O             1 RES     
    1631 O           39.6580    23.4910     8.2180 O             1 RES     
    1632 O           40.5220    13.4140     7.5850 O             1 RES     
    1633 O           12.5910    40.7200     5.2870 O             1 RES     
    1634 O           29.9960    21.1650    13.4540 O             1 RES     
    1635 Si          41.0860    12.8460     6.2010 Si            1 RES     
    1636 Si          16.5360    42.3980     6.8450 Si            1 RES     
    1637 O            5.2850    29.5070     8.5800 O             1 RES     
    1638 Si          45.8050    26.2980     2.8180 Si            1 RES     
    1639 O           13.0470    46.5060     7.9250 O             1 RES     
    1640 O            0.7180    49.8240     8.9760 O             1 RES     
    1641 OS          36.5360    15.8240    14.3420 OS            1 RES     
    1642 O           38.6230    13.9870    13.4050 O             1 RES     
    1643 Si          11.1980    35.2150    10.2120 Si            1 RES     
    1644 O           16.1250    27.2630     7.1250 O             1 RES     
    1645 O           42.0090     8.9310     6.7160 O             1 RES     
    1646 O           29.4600     7.4260     7.0500 O             1 RES     
    1647 Si          24.4940    16.1220     5.1530 Si            1 RES     
    1648 O           14.2950    24.3120     4.4240 O             1 RES     
    1649 Si          38.8680    40.4150    14.1390 Si            1 RES     
    1650 O           29.1570    32.0700     6.3030 O             1 RES     
    1651 O           16.2070    42.0650     2.8460 O             1 RES     
    1652 OS          19.4590    10.4200    15.3960 OS            1 RES     
    1653 Si           9.1930     2.1070     6.1930 Si            1 RES     
    1654 O           22.3780    10.9030     3.1270 O             1 RES     
    1655 O           29.5450    27.8690     5.5900 O             1 RES     
    1656 Si           9.7130    35.8030     6.0890 Si            1 RES     
    1657 O           16.2530    39.6080     2.5560 O             1 RES     
    1658 O           36.1380    34.2730     4.0100 O             1 RES     
    1659 O           41.4980     4.0980     6.5750 O             1 RES     
    1660 O           44.7810    41.7280     3.7870 O             1 RES     
    1661 Si          21.5530    37.3940     5.0980 Si            1 RES     
    1662 O           15.2540    46.7190     5.0130 O             1 RES     
    1663 Si          48.3050     8.8110     5.0710 Si            1 RES     
    1664 Si          19.3380    36.4260     9.9850 Si            1 RES     
    1665 O            6.0910    41.7390    14.4270 O             1 RES     
    1666 O           47.7060     8.7760     8.5610 O             1 RES     
    1667 O           16.0610     6.3310     7.6540 O             1 RES     
    1668 O           40.2300    36.4090    13.8110 O             1 RES     
    1669 O           48.3560    10.4680     2.3570 O             1 RES     
    1670 Si           7.5970    15.8860     3.3550 Si            1 RES     
    1671 Si          33.3320    42.4600    10.1280 Si            1 RES     
    1672 Si          46.0100    36.0040     3.3990 Si            1 RES     
    1673 O           46.9380    40.5590     4.9240 O             1 RES     
    1674 Si          14.4050    18.2450     4.9420 Si            1 RES     
    1675 O           46.1040    11.4080     5.6420 O             1 RES     
    1676 O           27.3830     8.8200     6.7370 O             1 RES     
    1677 O           31.8700    15.0560     3.2500 O             1 RES     
    1678 Si          15.9070    10.0890     6.7220 Si            1 RES     
    1679 O           10.8390    15.5770    10.8400 O             1 RES     
    1680 Si           3.8790    23.8550     9.3030 Si            1 RES     
    1681 O           10.9570    21.5610     8.4690 O             1 RES     
    1682 Si           7.0870    27.4220    11.3940 Si            1 RES     
    1683 O           42.1170    20.9600    11.0440 O             1 RES     
    1684 O           14.6650    28.9330    13.6520 O             1 RES     
    1685 Si          15.6640    29.9960    13.2650 Si            1 RES     
    1686 O           41.2090     6.6220     7.2350 O             1 RES     
    1687 Si           3.2300    16.7320     5.8630 Si            1 RES     
    1688 O           25.0490    41.8660     6.4780 O             1 RES     
    1689 Si           1.2730    44.7730    10.5840 Si            1 RES     
    1690 O            2.6120    46.4420     7.0790 O             1 RES     
    1691 O           13.6390    49.8840    10.2120 O             1 RES     
    1692 O           30.6700    34.1810     9.2810 O             1 RES     
    1693 Si          41.1270    42.6480     8.1450 Si            1 RES     
    1694 O           40.0150     6.7220    12.7820 O             1 RES     
    1695 OS          46.5220    14.8410    13.6800 OS            1 RES     
    1696 O           19.5030    37.4470    11.1780 O             1 RES     
    1697 O           40.1420    18.5980     7.4890 O             1 RES     
    1698 O            6.4810    45.2430    12.8770 O             1 RES     
    1699 O            3.6000    44.9390     4.7370 O             1 RES     
    1700 O           40.1310    32.9500    10.1810 O             1 RES     
    1701 O           44.1860    49.7900    14.2140 O             1 RES     
    1702 Si          26.6890    16.7210     3.0580 Si            1 RES     
    1703 O           23.2980    16.4810    11.5780 O             1 RES     
    1704 O            7.4210    33.3580     4.5400 O             1 RES     
    1705 Si          44.8280    48.4210    13.6520 Si            1 RES     
    1706 O           47.3600    32.4420     2.6270 O             1 RES     
    1707 O           38.3920    45.2230     3.4960 O             1 RES     
    1708 O            2.3880    18.0540     6.4230 O             1 RES     
    1709 OS          22.7450    30.9570    14.5870 OS            1 RES     
    1710 O           33.4470    13.1420     3.1830 O             1 RES     
    1711 O           24.0410    23.1650    13.5520 O             1 RES     
    1712 OS          46.7590    44.2960    14.1190 OS            1 RES     
    1713 O           36.7380    34.8560     9.1230 O             1 RES     
    1714 O           43.6660    35.3340     8.4330 O             1 RES     
    1715 O           39.8860     2.2040    10.2160 O             1 RES     
    1716 O           49.6020    12.7850    13.2680 O             1 RES     
    1717 O           33.9400    24.2910     2.7330 O             1 RES     
    1718 O           11.1720    18.9820     5.3790 O             1 RES     
    1719 O           14.0480     9.3350     3.0620 O             1 RES     
    1720 OS          35.8400    18.1980    13.9900 OS            1 RES     
    1721 O           45.4570    30.3800     2.5570 O             1 RES     
    1722 O           34.2480    35.0790     8.7640 O             1 RES     
    1723 OS           3.5890    41.3540    15.1300 OS            1 RES     
    1724 O           14.3800    26.3200    10.8220 O             1 RES     
    1725 OS          48.5540    26.5690    14.4960 OS            1 RES     
    1726 Si           5.3480    49.4170    12.7330 Si            1 RES     
    1727 O           41.5300    11.3990     6.3670 O             1 RES     
    1728 Si          11.4050    22.6560     4.4670 Si            1 RES     
    1729 OS          38.6380    32.5650    14.3420 OS            1 RES     
    1730 OS          40.7220    14.0150    14.4760 OS            1 RES     
    1731 Si           5.4440    46.3220    12.6150 Si            1 RES     
    1732 O           47.9650     3.8760     8.0230 O             1 RES     
    1733 O           22.6100    24.2770     9.1200 O             1 RES     
    1734 O            8.7410     3.2920     5.2770 O             1 RES     
    1735 O           43.1120    13.3500    10.8740 O             1 RES     
    1736 O           40.3440    48.4660     7.4730 O             1 RES     
    1737 O            3.4810     4.3130    11.9250 O             1 RES     
    1738 O           15.4450    37.0720    13.3770 O             1 RES     
    1739 O           30.5520    32.6320    11.0970 O             1 RES     
    1740 O           14.9040    13.0700     7.7000 O             1 RES     
    1741 Si          43.4640    34.5120     4.1050 Si            1 RES     
    1742 O           37.2750    41.3190     6.3480 O             1 RES     
    1743 O           16.5790     8.1120     3.7590 O             1 RES     
    1744 O           44.9030    17.5790     9.8250 O             1 RES     
    1745 O           42.4170    23.6620    11.1840 O             1 RES     
    1746 Si          11.8210    19.6120     4.0960 Si            1 RES     
    1747 O            4.2290     4.2180     9.5200 O             1 RES     
    1748 O           11.9240     3.5670     7.9060 O             1 RES     
    1749 Si          23.2640    28.3340     4.5650 Si            1 RES     
    1750 Si          10.6550    15.6260     6.9070 Si            1 RES     
    1751 Si          16.6240    47.4700     4.8540 Si            1 RES     
    1752 O           42.4230    43.5150    11.6360 O             1 RES     
    1753 O           44.6300    13.0840     4.7050 O             1 RES     
    1754 O           24.8870    23.7760     8.7800 O             1 RES     
    1755 Si          44.1340    14.4970    10.5390 Si            1 RES     
    1756 O            1.7890    11.3740     9.7400 O             1 RES     
    1757 Si          36.3550    48.1240     7.1680 Si            1 RES     
    1758 O           10.2310    49.0210     4.5630 O             1 RES     
    1759 O           28.3610    24.1750     9.0730 O             1 RES     
    1760 O            8.0270    42.6550    15.9740 O             1 RES     
    1761 O           20.6590    43.6390     4.2780 O             1 RES     
    1762 Si          19.3750    41.1540     7.3020 Si            1 RES     
    1763 O           30.9560    11.5940     8.6360 O             1 RES     
    1764 O           18.8340     9.1030    13.2000 O             1 RES     
    1765 O           18.5960    17.9340    13.0090 O             1 RES     
    1766 O           46.4730     1.5150     3.5410 O             1 RES     
    1767 Si          18.1270    13.5640    13.2330 Si            1 RES     
    1768 O           12.2390    25.8070     3.0760 O             1 RES     
    1769 O            7.1170    49.6020     8.2970 O             1 RES     
    1770 OS          11.0990    15.4880    15.8520 OS            1 RES     
    1771 Si          47.6450    44.0410    12.8520 Si            1 RES     
    1772 O            7.2630    40.2660     5.4760 O             1 RES     
    1773 Si           5.9150    39.6130     6.0160 Si            1 RES     
    1774 Si           9.3260    30.2780     8.7720 Si            1 RES     
    1775 O           21.8550    12.2470     7.6560 O             1 RES     
    1776 Si          32.0220    45.5090     3.4310 Si            1 RES     
    1777 Si          26.3280    36.2830     3.8650 Si            1 RES     
    1778 Si          29.2960    49.2110     4.6370 Si            1 RES     
    1779 Si           9.8470    49.8200    11.0250 Si            1 RES     
    1780 Si           9.5920     8.9400    14.1330 Si            1 RES     
    1781 O           23.2350    37.5940     5.5630 O             1 RES     
    1782 O            4.4610     4.4630     6.6550 O             1 RES     
    1783 O           37.6840     4.5540     4.2990 O             1 RES     
    1784 O            8.1540    43.7040     6.2390 O             1 RES     
    1785 O           16.5850     3.8740     7.1990 O             1 RES     
    1786 Si          43.4070    14.0150     4.5790 Si            1 RES     
    1787 O           29.2980    38.8270     7.6790 O             1 RES     
    1788 O           29.3870    21.7350     9.2020 O             1 RES     
    1789 Si          19.1950    49.8120     3.6240 Si            1 RES     
    1790 O           38.6720    38.0910    11.0390 O             1 RES     
    1791 Si          37.7770    35.5230     8.0530 Si            1 RES     
    1792 O            0.8420    23.7000    11.6950 O             1 RES     
    1793 Si          45.3090    46.5390     8.6930 Si            1 RES     
    1794 O           40.1670    32.8790     5.9980 O             1 RES     
    1795 O           49.4920    12.2080     4.3130 O             1 RES     
    1796 Si          43.2470    18.1450     6.8110 Si            1 RES     
    1797 O            1.2610    45.9670     4.7330 O             1 RES     
    1798 O           20.5560     6.5140    11.2540 O             1 RES     
    1799 Si          46.4700    21.9070     5.5860 Si            1 RES     
    1800 O           33.7270     4.7470    11.2180 O             1 RES     
    1801 O           48.7680    39.6940    10.5490 O             1 RES     
    1802 Si           3.4020     1.0840     6.7640 Si            1 RES     
    1803 O           21.3330     1.8710    11.3530 O             1 RES     
    1804 O           35.5060    11.1090     6.4490 O             1 RES     
    1805 O           26.7580     4.1720     8.6430 O             1 RES     
    1806 O           44.5140    28.1680    12.7980 O             1 RES     
    1807 Si           5.8150    23.1590    13.7230 Si            1 RES     
    1808 O           37.1250     4.6340     6.7400 O             1 RES     
    1809 Si          42.0090     8.7670     3.2600 Si            1 RES     
    1810 Si          46.1000    12.5440     4.5270 Si            1 RES     
    1811 O           49.5030    40.8540    12.6370 O             1 RES     
    1812 O           11.7300    11.3630    10.8470 O             1 RES     
    1813 Si          10.5060     3.9990     8.3070 Si            1 RES     
    1814 O           26.4340    42.8610    11.3620 O             1 RES     
    1815 Si          45.5280    18.4290    12.9920 Si            1 RES     
    1816 O           10.2690    20.2770    12.7150 O             1 RES     
    1817 O            4.0880     6.5780     5.0410 O             1 RES     
    1818 Si           4.7960    45.1350     3.8250 Si            1 RES     
    1819 Si          17.2500    36.7620     5.3500 Si            1 RES     
    1820 O           22.6580    35.0170     8.1920 O             1 RES     
    1821 O            4.7760    11.3850     3.7570 O             1 RES     
    1822 Si           2.1730    30.1660    10.6390 Si            1 RES     
    1823 O           29.6660     9.5910    12.2180 O             1 RES     
    1824 Si           1.5830    19.4170     6.7290 Si            1 RES     
    1825 Si           4.1910    30.4610     4.9740 Si            1 RES     
    1826 O           18.7420    19.2920     3.6040 O             1 RES     
    1827 O           29.6860    44.8840    11.6080 O             1 RES     
    1828 Si          21.1900    42.2330     4.8640 Si            1 RES     
    1829 O           30.7800    20.5740     4.9990 O             1 RES     
    1830 O           19.1700    19.3410     6.1340 O             1 RES     
    1831 Si          21.9210     5.8130    11.6850 Si            1 RES     
    1832 O           19.2280    34.6030     2.8800 O             1 RES     
    1833 Si           4.1090     5.0000     5.1770 Si            1 RES     
    1834 O            6.3600    18.8940     8.8740 O             1 RES     
    1835 O            6.2940     0.6990     3.4020 O             1 RES     
    1836 O           15.1280     3.2530    11.2180 O             1 RES     
    1837 Si          24.5940    16.9940    10.8350 Si            1 RES     
    1838 Si          12.2190    47.6710     7.2280 Si            1 RES     
    1839 Si          49.2660    27.9520    14.1410 Si            1 RES     
    1840 O           37.6340    43.1750     4.6860 O             1 RES     
    1841 O           40.8040     9.0420    13.7160 O             1 RES     
    1842 Si          27.3070    45.2360     8.2250 Si            1 RES     
    1843 O           33.9980    22.9060     7.6760 O             1 RES     
    1844 O            7.2550    30.0260    13.2260 O             1 RES     
    1845 OS          45.0770    29.4240    15.0810 OS            1 RES     
    1846 O           45.1190    37.2770     3.0810 O             1 RES     
    1847 O            6.8140    47.4990     9.5180 O             1 RES     
    1848 O           14.2680    43.1000     4.5660 O             1 RES     
    1849 O           41.9410    38.7310    11.1050 O             1 RES     
    1850 O            5.3760    40.2880     7.4140 O             1 RES     
    1851 O           40.1690    43.8500     4.6990 O             1 RES     
    1852 O           27.7100    40.7150     6.5120 O             1 RES     
    1853 O           40.9140    41.0570     8.2180 O             1 RES     
    1854 OS          34.1110    39.3100    14.9850 OS            1 RES     
    1855 O           30.0460    40.2740     5.7160 O             1 RES     
    1856 O           39.6660    27.1110    12.0460 O             1 RES     
    1857 O           17.3190    47.0070     3.5200 O             1 RES     
    1858 Si          32.9580     4.0070    10.1090 Si            1 RES     
    1859 OS          10.9230     3.7840    14.3840 OS            1 RES     
    1860 Si          34.8320    34.0840    12.5900 Si            1 RES     
    1861 O            7.6280    43.2180    13.5850 O             1 RES     
    1862 Si          47.7210    26.6370     7.6180 Si            1 RES     
    1863 O           30.9160    26.5840     3.7620 O             1 RES     
    1864 O           23.9220    42.3280    12.3240 O             1 RES     
    1865 O           36.9150    15.8830     8.6820 O             1 RES     
    1866 OS           6.4700    14.0980    14.5600 OS            1 RES     
    1867 O           21.1230    47.8380     9.4230 O             1 RES     
    1868 O           44.2260     1.4090     2.5910 O             1 RES     
    1869 O           21.3940    24.2170     4.6260 O             1 RES     
    1870 O           38.1040    25.3190    12.6240 O             1 RES     
    1871 Si          32.5640    11.8050     8.6730 Si            1 RES     
    1872 O           33.7820    18.0900     7.4940 O             1 RES     
    1873 O            9.2800    39.5730    11.9060 O             1 RES     
    1874 O            1.9720     1.2120     6.1930 O             1 RES     
    1875 O           46.1200    47.9080     8.9550 O             1 RES     
    1876 O           15.0400    45.0910     8.8960 O             1 RES     
    1877 O            5.1570    33.7200     3.2020 O             1 RES     
    1878 Si          43.0790    47.3120    11.1950 Si            1 RES     
    1879 OS          38.3240     2.4550    14.5480 OS            1 RES     
    1880 O            9.7870    41.1050     4.7360 O             1 RES     
    1881 O            6.1870    10.7460     5.5900 O             1 RES     
    1882 O           34.0590    49.7060     8.3830 O             1 RES     
    1883 O           46.9490    42.9200     4.2110 O             1 RES     
    1884 O           40.5380    39.4770     3.5280 O             1 RES     
    1885 O           25.0980    48.5330     8.5770 O             1 RES     
    1886 Si          33.8420    45.4100     9.7360 Si            1 RES     
    1887 O            1.0700    29.6330     2.7850 O             1 RES     
    1888 O           31.7480    46.3360     4.7500 O             1 RES     
    1889 O           46.7180    43.3970    11.7750 O             1 RES     
    1890 O           45.9950    25.4950     4.1030 O             1 RES     
    1891 Si          24.4620    20.2280     4.2260 Si            1 RES     
    1892 O            1.2180    40.0580    10.7650 O             1 RES     
    1893 O           49.7400    19.9800    10.4620 O             1 RES     
    1894 O           36.5850     7.6310    10.1330 O             1 RES     
    1895 O           32.3760    49.8430     3.1810 O             1 RES     
    1896 O           28.6740    10.7080    14.1490 O             1 RES     
    1897 O           29.5430    49.3210    12.4220 O             1 RES     
    1898 Si          38.2170    48.4220    11.3390 Si            1 RES     
    1899 O           27.3500    36.5040    12.2680 O             1 RES     
    1900 O           21.5430    31.5880     9.9880 O             1 RES     
    1901 O           34.2360    27.1980    10.1070 O             1 RES     
    1902 Si          28.9930     5.7800     3.1930 Si            1 RES     
    1903 O           16.7080    12.7920     9.7260 O             1 RES     
    1904 Si          30.0820    44.3490    13.0340 Si            1 RES     
    1905 O            8.3120    28.2320    12.0050 O             1 RES     
    1906 Si          17.5100    25.8340    12.3960 Si            1 RES     
    1907 O           13.1120    45.4360     5.0930 O             1 RES     
    1908 O            8.6580    38.8890     7.8230 O             1 RES     
    1909 O           25.4570    30.2240     5.8030 O             1 RES     
    1910 O           15.4610    30.9980    12.0200 O             1 RES     
    1911 O           20.9830    17.0100    12.4260 O             1 RES     
    1912 O            2.5790    23.0990     5.9300 O             1 RES     
    1913 Si          23.6140    20.2550     7.2040 Si            1 RES     
    1914 O           12.8580    28.5260    10.3000 O             1 RES     
    1915 Si          49.4750    31.2930     5.8120 Si            1 RES     
    1916 O           30.2560     7.0160    13.1400 O             1 RES     
    1917 O            1.0510    42.4950     2.7780 O             1 RES     
    1918 O           47.2880    39.8280     7.4040 O             1 RES     
    1919 Si          18.5590    46.0310     6.8330 Si            1 RES     
    1920 Si          34.5940    12.1700     2.8700 Si            1 RES     
    1921 O            4.8720     2.7370    12.9050 O             1 RES     
    1922 Si          22.8780    32.3050    10.6540 Si            1 RES     
    1923 O           40.5280    15.8970     7.9670 O             1 RES     
    1924 O           49.8640    21.4210    12.6100 O             1 RES     
    1925 Si          42.2390     3.0160     7.4680 Si            1 RES     
    1926 O            3.7080    32.8340    13.4430 O             1 RES     
    1927 O            2.5300    34.7780    12.6110 O             1 RES     
    1928 Si           2.4450     7.5800    14.4700 Si            1 RES     
    1929 O           49.6160    16.5430    11.2260 O             1 RES     
    1930 Si          27.6710    25.6370    12.2540 Si            1 RES     
    1931 O            9.4760    25.8230     3.2250 O             1 RES     
    1932 Si          13.1140    47.5690    13.2110 Si            1 RES     
    1933 O           16.1200    18.1080    12.2320 O             1 RES     
    1934 OS          29.6160    49.4550    15.2350 OS            1 RES     
    1935 Si           2.5000    36.8800     8.8330 Si            1 RES     
    1936 O           10.4580    19.5140    10.2270 O             1 RES     
    1937 O           31.5910     0.4320    11.3760 O             1 RES     
    1938 O            6.2520     3.0190     2.5250 O             1 RES     
    1939 O           23.7620    20.4510     5.6460 O             1 RES     
    1940 Si          32.9600    16.8100     7.8490 Si            1 RES     
    1941 O           45.8420    12.2230     2.9200 O             1 RES     
    1942 Si          27.7260    28.2960    13.6810 Si            1 RES     
    1943 Si          32.2490    34.8590     5.3880 Si            1 RES     
    1944 O           43.5730    19.3770     5.9410 O             1 RES     
    1945 O           41.4800    11.2340    10.4330 O             1 RES     
    1946 O           27.1300    19.9590    11.9050 O             1 RES     
    1947 O           43.1120     9.0960     2.1700 O             1 RES     
    1948 Si           6.3650    38.1370    13.4510 Si            1 RES     
    1949 O           15.5340    25.4820     8.9350 O             1 RES     
    1950 O           28.6790    23.3450     2.1370 O             1 RES     
    1951 O           44.5210    17.3100     6.5560 O             1 RES     
    1952 O           43.6050    30.4300    13.6700 O             1 RES     
    1953 O           13.6740    44.1950     7.0730 O             1 RES     
    1954 O           14.3730    14.0060    12.1490 O             1 RES     
    1955 O           15.2320    24.6720     6.5390 O             1 RES     
    1956 O           10.0290     5.5380     8.3100 O             1 RES     
    1957 Si          25.5300    22.6310     7.8570 Si            1 RES     
    1958 O            2.1790    47.9090     3.7720 O             1 RES     
    1959 Si          28.9950    23.7520     5.4270 Si            1 RES     
    1960 Si           3.1650    10.6790    10.1300 Si            1 RES     
    1961 O           16.2890    28.8230     5.1010 O             1 RES     
    1962 O           17.3520    32.1840     7.5460 O             1 RES     
    1963 Si          43.9500    35.9760    14.5880 Si            1 RES     
    1964 O           34.8070    39.4040     4.0380 O             1 RES     
    1965 Si          36.5260    42.5080     5.6500 Si            1 RES     
    1966 O           19.9540     6.7290     6.2850 O             1 RES     
    1967 OS           4.6190    12.9200    13.5930 OS            1 RES     
    1968 O            2.3390     4.1420     7.6210 O             1 RES     
    1969 O           41.9660    30.8780     9.8350 O             1 RES     
    1970 Si          35.8660    49.2400     2.9200 Si            1 RES     
    1971 O            8.7220    18.7280     5.6150 O             1 RES     
    1972 OS          14.6250     3.0450    13.8430 OS            1 RES     
    1973 Si          35.9630    37.4350     6.4760 Si            1 RES     
    1974 Si           5.4570    15.2780     7.5350 Si            1 RES     
    1975 O           27.9400    14.5790    12.6080 O             1 RES     
    1976 OS          26.5330     4.8940    15.5000 OS            1 RES     
    1977 Si          43.3240    41.8310     3.2860 Si            1 RES     
    1978 Si          43.4030    46.2690     6.1900 Si            1 RES     
    1979 Si          29.6460    11.3040     7.7860 Si            1 RES     
    1980 O           36.5260    14.3320    10.5830 O             1 RES     
    1981 O           36.0060    43.7990     6.4990 O             1 RES     
    1982 Si           8.0120    14.4310     6.0600 Si            1 RES     
    1983 Si           8.8960    23.5080    13.6690 Si            1 RES     
    1984 O           38.2490    18.3300     8.8490 O             1 RES     
    1985 O           43.7310    19.8350     3.3930 O             1 RES     
    1986 O           27.6680    35.9060     3.0870 O             1 RES     
    1987 O            0.4900    43.5340    10.0180 O             1 RES     
    1988 O           13.6420    35.4190     6.9260 O             1 RES     
    1989 Si          12.9910    27.1330    10.9580 Si            1 RES     
    1990 Si          23.8630    45.8620    11.9930 Si            1 RES     
    1991 Si          25.8870     0.5160    13.8480 Si            1 RES     
    1992 O           22.2970    48.3590     5.3120 O             1 RES     
    1993 Si          25.9610     5.2320     7.8690 Si            1 RES     
    1994 O           24.2940     1.8930     2.7680 O             1 RES     
    1995 O           16.4760    37.7040     4.3180 O             1 RES     
    1996 O           22.5200    49.9330    12.4180 O             1 RES     
    1997 Si          37.4340    32.5980    13.1870 Si            1 RES     
    1998 O           38.9960     6.4630     3.1540 O             1 RES     
    1999 Si          10.7150    31.6810    12.0640 Si            1 RES     
    2000 O           34.5510    35.6090    12.8760 O             1 RES     
    2001 Si          40.2900    17.2020     6.6710 Si            1 RES     
    2002 O            0.1750    17.8730     2.5890 O             1 RES     
    2003 O           44.9450    25.3230     1.8730 O             1 RES     
    2004 O           25.4540    16.6890     4.0590 O             1 RES     
    2005 O           21.2320    41.1290     3.7910 O             1 RES     
    2006 O           47.9910    20.1320     7.5240 O             1 RES     
    2007 O           28.9260     1.4310     7.6320 O             1 RES     
    2008 Si          24.1400     6.9550     9.6920 Si            1 RES     
    2009 Si          10.0460    45.8610    12.3140 Si            1 RES     
    2010 O           19.5920    46.6460     7.8140 O             1 RES     
    2011 O           49.2820    13.9790     6.4470 O             1 RES     
    2012 Si          32.7610    30.8370     8.0090 Si            1 RES     
    2013 O           36.0280    19.1090    11.6440 O             1 RES     
    2014 O           25.9280    36.2850     9.9660 O             1 RES     
    2015 O           16.9410     1.5030    13.9450 O             1 RES     
    2016 Si           8.0890     9.1650     3.4690 Si            1 RES     
    2017 O            7.4840    43.0870     8.6110 O             1 RES     
    2018 Si          20.1150    33.9210    14.1370 Si            1 RES     
    2019 O            1.1320    27.7500     4.4110 O             1 RES     
    2020 Si          41.8280    48.1740     7.9800 Si            1 RES     
    2021 Si          38.2600     9.3290     6.6120 Si            1 RES     
    2022 O           40.4440    45.0910    11.7210 O             1 RES     
    2023 O           22.1720    28.9880    12.0870 O             1 RES     
    2024 O           22.5850    42.3680     5.5940 O             1 RES     
    2025 O            6.3640     0.9860    13.3560 O             1 RES     
    2026 O           21.1010    18.6210     4.3820 O             1 RES     
    2027 OS          40.5240    10.4340    15.8200 OS            1 RES     
    2028 O           28.6020    25.5380    10.9880 O             1 RES     
    2029 Si          45.1290    16.0420     5.8950 Si            1 RES     
    2030 O           48.0560    45.4530    12.2910 O             1 RES     
    2031 O           14.1680    24.4350     1.8690 O             1 RES     
    2032 O           13.8490    13.9900     5.4690 O             1 RES     
    2033 Si          41.6930    22.5180     5.2840 Si            1 RES     
    2034 O            7.7250    10.1780     9.7690 O             1 RES     
    2035 O           15.1780    41.4640     6.7210 O             1 RES     
    2036 O            0.5540    24.3760     6.7230 O             1 RES     
    2037 Si          38.2510    39.6490    11.1770 Si            1 RES     
    2038 Si          16.6180    37.7820    14.0810 Si            1 RES     
    2039 Si           2.9550    34.2100    14.0020 Si            1 RES     
    2040 O           13.2470     4.9020     3.6700 O             1 RES     
    2041 O           11.5390    20.6390    15.1320 O             1 RES     
    2042 Si          17.6370    21.3620    13.0510 Si            1 RES     
    2043 O           37.0490     8.3670     5.3170 O             1 RES     
    2044 O           18.5340     9.5700     4.7320 O             1 RES     
    2045 O           28.1010     7.5450     8.9600 O             1 RES     
    2046 O            4.4450    49.1510     3.9220 O             1 RES     
    2047 Si          34.1500     0.2340     6.9910 Si            1 RES     
    2048 O           28.9690     0.5530     5.4100 O             1 RES     
    2049 O           25.2910    45.2430    11.4690 O             1 RES     
    2050 O           48.5810     0.0460    12.8100 O             1 RES     
    2051 O            9.1010    41.7060     7.7430 O             1 RES     
    2052 O           23.3950    15.5370    13.9790 O             1 RES     
    2053 OS          46.7240    33.2900    14.4010 OS            1 RES     
    2054 O           38.2860    19.0310    13.0940 O             1 RES     
    2055 O           48.7460    16.5420    13.5350 O             1 RES     
    2056 O            2.8580    31.2520    11.5010 O             1 RES     
    2057 O           28.9490    32.9340     4.0500 O             1 RES     
    2058 Si          46.1820    13.6870    12.6920 Si            1 RES     
    2059 O           22.4060    27.0210     4.5720 O             1 RES     
    2060 O           32.4200    22.4380     3.8130 O             1 RES     
    2061 Si          19.3320    37.9810     7.2560 Si            1 RES     
    2062 O           13.0730    33.9140    13.3170 O             1 RES     
    2063 O            1.1850    49.5760    12.8470 O             1 RES     
    2064 Si          23.2730    36.9670    11.8210 Si            1 RES     
    2065 O            2.9850    17.9980    14.8750 O             1 RES     
    2066 O           25.0460    37.2640     7.3890 O             1 RES     
    2067 O           14.9480    19.2350     6.0250 O             1 RES     
    2068 O           20.8760    30.5270     2.4170 O             1 RES     
    2069 Si          47.2880    48.5670     9.7450 Si            1 RES     
    2070 O            4.8430    38.0640    13.1040 O             1 RES     
    2071 O           29.7890     4.3610    13.8270 O             1 RES     
    2072 Si          39.1580     5.4970    12.3780 Si            1 RES     
    2073 O            6.1050    35.7080     4.4190 O             1 RES     
    2074 O           36.5980     2.3970    12.3880 O             1 RES     
    2075 Si          15.4760    20.6070     6.7620 Si            1 RES     
    2076 O           14.5900    33.3570    11.3350 O             1 RES     
    2077 Si          17.0470     0.9500    12.4370 Si            1 RES     
    2078 O            2.3170     7.2640     8.3850 O             1 RES     
    2079 O            9.0200    36.3940     7.3610 O             1 RES     
    2080 O            0.4130    36.1710    11.9020 O             1 RES     
    2081 O            7.3160    17.2230    10.7510 O             1 RES     
    2082 OS          41.2620    38.5490    15.0810 OS            1 RES     
    2083 O           48.3180    49.4250     8.8890 O             1 RES     
    2084 Si          46.3050     7.2390    11.5810 Si            1 RES     
    2085 Si           0.9870    22.4530    12.7220 Si            1 RES     
    2086 O           26.4740    16.1000     1.6920 O             1 RES     
    2087 O           12.6550    43.2920    11.9990 O             1 RES     
    2088 O            8.1300     3.5870    11.1090 O             1 RES     
    2089 OS          43.5260     5.4500    13.6310 OS            1 RES     
    2090 O           12.0960     9.1050     6.9030 O             1 RES     
    2091 Si          34.7290    19.2200    10.7460 Si            1 RES     
    2092 O            9.8690    36.6850     4.6570 O             1 RES     
    2093 O            6.2950    49.5440    10.8970 O             1 RES     
    2094 O           41.9290    17.3280     6.3350 O             1 RES     
    2095 O            9.4350    46.6280     4.5100 O             1 RES     
    2096 O           40.4240     8.4670     2.8820 O             1 RES     
    2097 O           16.1310    39.2250    14.1870 O             1 RES     
    2098 Si          39.6220    19.8540    13.4610 Si            1 RES     
    2099 Si          26.2590     7.5200    11.9100 Si            1 RES     
    2100 O           32.8230    46.4750     9.3520 O             1 RES     
    2101 Si           6.6160    22.6860     3.5980 Si            1 RES     
    2102 O           27.6590    26.8770     8.9330 O             1 RES     
    2103 Si          15.6720    43.1520     3.8470 Si            1 RES     
    2104 O           44.8030    25.8370     6.1180 O             1 RES     
    2105 O           12.3800     0.3960     4.1410 O             1 RES     
@<TRIPOS>BOND
       1      845     1025 1
       2     1584     1486 1
       3      673     1500 1
       4      635      547 1
       5     1126     1747 1
       6      468     1241 1
       7      411     1275 1
       8     1185     1572 1
       9     1837     1703 1
      10      993      864 1
      11      712     1148 1
      12     1035     1766 1
      13     2020     1736 1
      14      499     1195 1
      15      123      339 1
      16      976     1238 1
      17      812     1069 1
      18      160       25 1
      19      792     1689 1
      20      886     1536 1
      21     1863     1602 1
      22     1825      489 1
      23     2065     1537 1
      24     2035      530 1
      25     1193     1682 1
      26      984     1489 1
      27      727     1172 1
      28      727      522 1
      29      226      148 1
      30       38       68 1
      31      735      638 1
      32      587     1310 1
      33     2069      439 1
      34      731      390 1
      35      702     1314 1
      36       20     1053 1
      37     1237     1452 1
      38       60     2023 1
      39      796      920 1
      40      276     1147 1
      41     2105     1283 1
      42      363     1990 1
      43     1227     1802 1
      44      374      645 1
      45     2042     1268 1
      46     1030     2061 1
      47      275     1271 1
      48     1182     1672 1
      49     2017      562 1
      50      454      381 1
      51     1071      658 1
      52      904      737 1
      53      753     1862 1
      54      821     1608 1
      55      665     1678 1
      56      290     1201 1
      57     1944     1796 1
      58     1033     1902 1
      59      321     1965 1
      60       76       24 1
      61     1269     1682 1
      62       31      416 1
      63     1978     1344 1
      64       66     1589 1
      65     2084     1393 1
      66      381     1714 1
      67     1068     1940 1
      68      504     1560 1
      69      517     1517 1
      70      914     1123 1
      71     1781     1661 1
      72     1170     1750 1
      73      197     1393 1
      74       67      745 1
      75      894     1567 1
      76     1010     1888 1
      77      794      680 1
      78      153      409 1
      79      175     1055 1
      80      982     2080 1
      81     1021     1736 1
      82      524     1135 1
      83      922     1738 1
      84      220     1548 1
      85      584      654 1
      86       97     1466 1
      87       58      981 1
      88       79     1001 1
      89       45      574 1
      90      838      951 1
      91      162     1691 1
      92     1746     1535 1
      93     1354     1475 1
      94     1044      632 1
      95      187     1948 1
      96      179     1258 1
      97      530     1633 1
      98      729     1499 1
      99      363     1492 1
     100      129       26 1
     101      944     1999 1
     102      831     1045 1
     103      999     1799 1
     104     1973      415 1
     105      279     1953 1
     106     1081     1355 1
     107      133      694 1
     108     1092     1605 1
     109       97      845 1
     110      360      389 1
     111     1508     1634 1
     112      949     2078 1
     113      450     1264 1
     114      873      423 1
     115      934      697 1
     116      966     1437 1
     117      905      837 1
     118      569     1643 1
     119      220     1077 1
     120     1089     1718 1
     121      877     1503 1
     122     1878      501 1
     123       45     1161 1
     124      964     1371 1
     125      833     1292 1
     126      467      682 1
     127      136      549 1
     128      201     1152 1
     129      447      570 1
     130      657     1475 1
     131      322     1204 1
     132     1061      657 1
     133      173     1567 1
     134      923     1260 1
     135     2063     1489 1
     136      139     1414 1
     137      809      959 1
     138      508     1680 1
     139      321      967 1
     140     1116     1174 1
     141      273     1891 1
     142     1830      521 1
     143      693     1188 1
     144     1329     1144 1
     145     1519     1711 1
     146      539     1774 1
     147      461     1755 1
     148     1002     1828 1
     149     1026      463 1
     150      823      514 1
     151     1017     1449 1
     152      268       21 1
     153      596     1735 1
     154     1632     1635 1
     155      236      927 1
     156       40     1955 1
     157     1061      368 1
     158     1928     1595 1
     159     1071      552 1
     160     1906      506 1
     161      225      506 1
     162      979     1564 1
     163     1838     1639 1
     164     1614     1662 1
     165     1925     1202 1
     166      850     1470 1
     167     2025     1726 1
     168      241     1642 1
     169     2015     1311 1
     170       86     1058 1
     171      820     1546 1
     172     1253     1731 1
     173      279     1639 1
     174     1821      644 1
     175     1958      397 1
     176     1016     1693 1
     177     2008     1257 1
     178      967     1539 1
     179      438      475 1
     180      786      617 1
     181      184     1453 1
     182      320      609 1
     183     2064      704 1
     184      673     1088 1
     185      180     1786 1
     186      593      623 1
     187     1075      916 1
     188      268     1261 1
     189     1954      621 1
     190      863     1682 1
     191     1090     1740 1
     192      182     1494 1
     193       94      404 1
     194     1886     1222 1
     195      840     1297 1
     196      222     1212 1
     197      841     1932 1
     198      332     1071 1
     199      920     2064 1
     200      685     1739 1
     201     1921     1509 1
     202     1400     1647 1
     203      120     1133 1
     204      217      150 1
     205       35      233 1
     206      885     1325 1
     207     2035     1636 1
     208       82     1485 1
     209      595     1512 1
     210     1498     1643 1
     211       56     1586 1
     212     1026      432 1
     213     1820     1594 1
     214      449       10 1
     215      168      851 1
     216      756     1027 1
     217     1379     1127 1
     218      213     1902 1
     219     1390     1602 1
     220      168     1862 1
     221       56      532 1
     222     1928     1088 1
     223     1337     1627 1
     224     1859      671 1
     225       86     2073 1
     226      929     1278 1
     227      553     1538 1
     228      927      586 1
     229     1073      692 1
     230      578     1493 1
     231     1060     1791 1
     232     1938      430 1
     233      314     1197 1
     234      101      946 1
     235      160      396 1
     236      284      804 1
     237     1608     1584 1
     238      787     1627 1
     239      747     1495 1
     240     1874     1802 1
     241       73     1885 1
     242      995     1653 1
     243      152     1852 1
     244      838     1557 1
     245     1213     1681 1
     246      177     1516 1
     247     1850     1596 1
     248     1023     2046 1
     249      647      708 1
     250      746     1243 1
     251      364     1097 1
     252     1068      881 1
     253      213     1406 1
     254      757      999 1
     255      221      900 1
     256      933     1834 1
     257      897     1282 1
     258     2001     1697 1
     259      921     1891 1
     260     1983      533 1
     261     1959     1282 1
     262      408     1326 1
     263      592     1238 1
     264       62     1664 1
     265      256     1618 1
     266      115     1392 1
     267      606      545 1
     268      433     1515 1
     269      721      403 1
     270     1076     1883 1
     271      258       96 1
     272     1262     1556 1
     273      443     1600 1
     274      259      713 1
     275      162     1162 1
     276      967     1964 1
     277     1163     1787 1
     278      875      703 1
     279     1916     1226 1
     280     1980      693 1
     281      102      606 1
     282     1052      953 1
     283       60     1239 1
     284      729      948 1
     285     1061     2090 1
     286      349     1478 1
     287      715     1974 1
     288      579     1675 1
     289      718      938 1
     290      834     2101 1
     291     2084      582 1
     292      622     1537 1
     293      673     1176 1
     294      110     1786 1
     295       82     1455 1
     296     1476     1758 1
     297      462      630 1
     298      223      615 1
     299      314      690 1
     300     1664     1696 1
     301        7     1151 1
     302     1939     1913 1
     303     2084     1334 1
     304     1158     1529 1
     305      171      724 1
     306      823      865 1
     307     1214     1197 1
     308      731     1680 1
     309      199      450 1
     310      535     1615 1
     311      683     1347 1
     312     1047     1822 1
     313      842     1814 1
     314      893     1910 1
     315     2092     1656 1
     316     1846     1672 1
     317      869     1511 1
     318     1267     1491 1
     319      971      439 1
     320      754     1267 1
     321     1065     1923 1
     322       57     2036 1
     323      861     1307 1
     324       13     1481 1
     325      846     1074 1
     326      270     1003 1
     327       85      427 1
     328      409     1444 1
     329      274      896 1
     330      695     1702 1
     331      239     1359 1
     332       77     1480 1
     333     1989     1125 1
     334      206     1397 1
     335      366      628 1
     336     2103     1848 1
     337      361     1688 1
     338       46      979 1
     339      840     1918 1
     340     1824     1121 1
     341      108      945 1
     342     1887     1465 1
     343      152     1688 1
     344      262      740 1
     345       17     1842 1
     346      237      485 1
     347     1999      374 1
     348     1012     1977 1
     349      247     1590 1
     350     1237     1533 1
     351      855     2038 1
     352      193      748 1
     353     2062     1139 1
     354      787      442 1
     355      874      605 1
     356     1053      641 1
     357     1149     1795 1
     358      185      749 1
     359       36     1979 1
     360      406     1356 1
     361      106      379 1
     362      990     1536 1
     363      941      918 1
     364     1829      632 1
     365     1904      410 1
     366     1249     1716 1
     367      775     1743 1
     368      176      975 1
     369     2103      400 1
     370     2056     1168 1
     371      190     1904 1
     372     1881      668 1
     373       99     1898 1
     374      184     1263 1
     375       59     1689 1
     376     1922     1900 1
     377     1220     1130 1
     378     2072     1251 1
     379      818     1172 1
     380      421      381 1
     381      726     1318 1
     382      897     1950 1
     383      189     1544 1
     384      135     1556 1
     385      313      472 1
     386      812     1895 1
     387      982     1327 1
     388      139      858 1
     389      948     1236 1
     390      792      971 1
     391     1930      369 1
     392      917     1110 1
     393     1922      636 1
     394      887      724 1
     395     1816      634 1
     396     1018      390 1
     397     2019     1465 1
     398      861      597 1
     399     1511     1768 1
     400      356      871 1
     401      770      386 1
     402      910     1552 1
     403      708     1561 1
     404     2058      370 1
     405      119      933 1
     406     1960      429 1
     407     1823     1226 1
     408     1970     1382 1
     409      215     2088 1
     410      307      629 1
     411      899     1180 1
     412      732     1917 1
     413     1866     1119 1
     414      349     1374 1
     415     2005     1102 1
     416       20     1808 1
     417      133      629 1
     418      776      539 1
     419      806     1757 1
     420      927     2050 1
     421      491     1125 1
     422       93     1503 1
     423      763     1715 1
     424       94     1294 1
     425     1879     1177 1
     426      283     1214 1
     427      948     1787 1
     428      100     1697 1
     429     1872     1523 1
     430      968     1403 1
     431      130     1236 1
     432     1250     1767 1
     433      100      440 1
     434      776     1477 1
     435     1977     1408 1
     436       92     1267 1
     437      626     1484 1
     438      610     1337 1
     439      727     1229 1
     440      547     1309 1
     441      140      383 1
     442      813      537 1
     443      235      554 1
     444      158     1143 1
     445      875     1995 1
     446      744     1838 1
     447       30     1151 1
     448      141      102 1
     449      749     1211 1
     450      203     1983 1
     451     2085     1924 1
     452       56     1067 1
     453      216     1376 1
     454      773     1726 1
     455       41     1813 1
     456     1522     1728 1
     457      963      638 1
     458      857     1838 1
     459      507     1285 1
     460       82     1377 1
     461      922     1514 1
     462      334      194 1
     463       85      472 1
     464       57     1912 1
     465     1982     1573 1
     466      397     1588 1
     467      136      537 1
     468      584      496 1
     469     1218     1434 1
     470     1010      880 1
     471      216     1499 1
     472     1986     1777 1
     473      445      707 1
     474     1001     1130 1
     475     2009     1388 1
     476      850     1819 1
     477      551       15 1
     478      240     1771 1
     479      773     1731 1
     480      231      479 1
     481     1181     1786 1
     482     1049      466 1
     483      427     1485 1
     484      952     1443 1
     485       96      659 1
     486     1038     1412 1
     487      443     1277 1
     488      232     2037 1
     489     2048     1778 1
     490     1058     1773 1
     491     2022      472 1
     492     1073     1291 1
     493      105     1513 1
     494      795      495 1
     495      495     1770 1
     496     1857     1751 1
     497     1083     1642 1
     498      164     1249 1
     499      450     1284 1
     500      165      596 1
     501      143     1274 1
     502      910     1384 1
     503      740     1396 1
     504     1791     1713 1
     505      951     1381 1
     506     1035     1868 1
     507       24      855 1
     508     2086     1702 1
     509      760      526 1
     510      728     1224 1
     511      120      957 1
     512     2011     1233 1
     513     1060     1117 1
     514     1395     1456 1
     515      274     1367 1
     516      689     1304 1
     517     1102     1458 1
     518      818     1764 1
     519     1855     1163 1
     520      127     1437 1
     521      149     1494 1
     522     1027     1744 1
     523      973     1289 1
     524      853       13 1
     525      376      706 1
     526      986     1431 1
     527     1975     1255 1
     528     1129     1541 1
     529      366     1622 1
     530      776      452 1
     531     1234     1518 1
     532      603     1333 1
     533     1005     2093 1
     534      246     1174 1
     535      137     1932 1
     536      287      721 1
     537     1078     1594 1
     538     1931     1511 1
     539     1992     1322 1
     540      127      669 1
     541      669     1521 1
     542      371     1611 1
     543      622     1424 1
     544     2041      634 1
     545      937      637 1
     546     1954     1134 1
     547      798     1316 1
     548     2034      683 1
     549      117      562 1
     550     1947     1809 1
     551      935     1476 1
     552     1668     1552 1
     553      644     1187 1
     554      800     2084 1
     555       63     1322 1
     556      839      710 1
     557      642     1678 1
     558      760     2077 1
     559     2007     1353 1
     560     1839      643 1
     561      974      767 1
     562     1669     1443 1
     563     1553     1638 1
     564      204     1258 1
     565     2070     1948 1
     566      873     1381 1
     567     2075     1435 1
     568      820     1174 1
     569     2071      467 1
     570     1963      538 1
     571      155      814 1
     572      141     1822 1
     573      172     1648 1
     574      750     1063 1
     575      135     1959 1
     576      761     1372 1
     577      231     1580 1
     578     1969     1431 1
     579      160     1540 1
     580      151     1966 1
     581      345     1286 1
     582      253      465 1
     583      566     1528 1
     584      125     1038 1
     585      530      556 1
     586      851     1079 1
     587     2103     1651 1
     588     1922     1165 1
     589     1963      425 1
     590      362     1631 1
     591      307      396 1
     592      785     1681 1
     593      810     1968 1
     594      427      639 1
     595      620      403 1
     596     1945     1365 1
     597     1157     1445 1
     598      961     1091 1
     599      328      457 1
     600       44      779 1
     601      805      711 1
     602     2044     1105 1
     603      327     1148 1
     604      503     1596 1
     605     1100     1427 1
     606      305     1456 1
     607     1005     1769 1
     608      939     1129 1
     609     1379     1686 1
     610      853     1745 1
     611      639     1693 1
     612     1070     1465 1
     613      281      988 1
     614      937     1200 1
     615      950     1278 1
     616     1057      645 1
     617     1437     1366 1
     618      343      905 1
     619     1009     1983 1
     620      684      706 1
     621     2045      568 1
     622       65      598 1
     623     2099       12 1
     624     1188     1326 1
     625      818      487 1
     626      208      585 1
     627      909     1663 1
     628     1852     1163 1
     629       47     1536 1
     630      621      550 1
     631      682     1462 1
     632     2045      672 1
     633     1304     1365 1
     634      860      575 1
     635      241     1042 1
     636     1234     1732 1
     637      206     1825 1
     638      637     1245 1
     639      751      842 1
     640       89      720 1
     641      469     1335 1
     642      282      573 1
     643     2069     1875 1
     644       24     1561 1
     645      164      839 1
     646      316      980 1
     647       58     2038 1
     648      696     1465 1
     649      415     1328 1
     650     1948     1375 1
     651     1849     1575 1
     652     1205     1677 1
     653     2094     1796 1
     654     1126     1366 1
     655      413     1726 1
     656      134     1861 1
     657     2052     1255 1
     658     1827     1904 1
     659      348     1421 1
     660     1853     1693 1
     661     1396     1146 1
     662      344      425 1
     663      125     1210 1
     664      486     1082 1
     665     1919      649 1
     666      592     1203 1
     667      256     1800 1
     668     1991       11 1
     669     1131     1611 1
     670     1960     1756 1
     671      655     1774 1
     672       79     1034 1
     673     2051     1472 1
     674      290      914 1
     675      221      745 1
     676      328     1613 1
     677      311     2032 1
     678      878      668 1
     679     1516     1764 1
     680      445     1308 1
     681      768     1426 1
     682      776        3 1
     683     1271     1537 1
     684      140     1101 1
     685     1087     1328 1
     686      503     1324 1
     687      161     1546 1
     688      264      382 1
     689     1965     1742 1
     690     1871     1559 1
     691      290     1870 1
     692     1933     1609 1
     693       61     1117 1
     694     1207     1330 1
     695       45      528 1
     696      978     1519 1
     697     1113     1750 1
     698     1174     1518 1
     699     1889      473 1
     700     2062      645 1
     701     1750     1502 1
     702     1818      525 1
     703      730     1591 1
     704     1943      661 1
     705     1131     1283 1
     706     1751     1662 1
     707      362     1201 1
     708       70     1032 1
     709      219     1862 1
     710     1892     1324 1
     711     2085      572 1
     712      251      924 1
     713     1823      601 1
     714      961     1524 1
     715      172     1768 1
     716      810     1432 1
     717      446     1504 1
     718      385     1545 1
     719      581      636 1
     720     1070     1915 1
     721       71     1348 1
     722      337     2040 1
     723      111      500 1
     724     1096     1603 1
     725      201     1321 1
     726       87       23 1
     727      147     1266 1
     728      400     1636 1
     729      646     1515 1
     730     2042      484 1
     731     1780     1521 1
     732     1813     1748 1
     733      678     1195 1
     734      672     1646 1
     735      863     1628 1
     736      130     1576 1
     737      195     1979 1
     738      685     1425 1
     739      424     1723 1
     740      828     1376 1
     741      785     1936 1
     742     1152     1348 1
     743       84      921 1
     744     1118     1796 1
     745     1937     1316 1
     746      379     1526 1
     747      822     1445 1
     748      868     1326 1
     749      336     2006 1
     750      224      329 1
     751     1341     1797 1
     752     1648     1483 1
     753      742     1618 1
     754     1006      922 1
     755     1315     1542 1
     756      579     1601 1
     757     1674     1468 1
     758     1157     1690 1
     759      509     1592 1
     760      781      547 1
     761      189     1894 1
     762      736      623 1
     763     1920     1710 1
     764      354      329 1
     765     1240     1483 1
     766     1842     1248 1
     767       38      732 1
     768      247     1967 1
     769      464     1168 1
     770     1940        6 1
     771      165     1065 1
     772      375     1212 1
     773      308      772 1
     774      143      580 1
     775      315      291 1
     776      338     1840 1
     777      108     1399 1
     778      167     1195 1
     779      316     1343 1
     780      433     1365 1
     781      754     1324 1
     782     1228     1779 1
     783      247      429 1
     784     1106     1213 1
     785     1100     1407 1
     786     1979     1763 1
     787     1860     1585 1
     788     1045     1706 1
     789      174      151 1
     790     1265     1782 1
     791      730     1624 1
     792      552     1311 1
     793       81       31 1
     794     1091     1359 1
     795     1029     1744 1
     796     1907     1614 1
     797       96     1292 1
     798       35      511 1
     799      245     1210 1
     800      262     1706 1
     801      147     1960 1
     802      567     1532 1
     803      769      498 1
     804     1925      618 1
     805      932      946 1
     806     1138     1463 1
     807      925     2009 1
     808     1881      644 1
     809     1574     1457 1
     810      763     1506 1
     811     1040     1388 1
     812      257     1464 1
     813      705     1134 1
     814      527        5 1
     815       19      344 1
     816     1017     1759 1
     817      717      603 1
     818      130     2014 1
     819      994      604 1
     820     1286     1495 1
     821     1810     1753 1
     822     1199     1678 1
     823       48     1814 1
     824     1413     1780 1
     825      193      519 1
     826      722     1140 1
     827     1266     1500 1
     828      839      667 1
     829     1978     1547 1
     830      130     2066 1
     831     1847     1200 1
     832     1061      510 1
     833     1206     1626 1
     834     1348     1487 1
     835      249     1478 1
     836     1898      478 1
     837     1833     1391 1
     838      111     1997 1
     839     2074      597 1
     840      555      468 1
     841     1906     1587 1
     842      372      708 1
     843      194     2023 1
     844     1421     1490 1
     845     2042      532 1
     846      331      626 1
     847      229      714 1
     848      805     1780 1
     849      479     1215 1
     850      129      851 1
     851      334      884 1
     852     2034      406 1
     853      261     1439 1
     854      474     1448 1
     855      735     1225 1
     856     2017      637 1
     857       35      866 1
     858      759      545 1
     859      373      662 1
     860     1234     1615 1
     861     1014     1668 1
     862        3     1643 1
     863      335     2009 1
     864     2102      560 1
     865     1428     1801 1
     866      951     1093 1
     867       69     1405 1
     868      426      675 1
     869      549     1380 1
     870     1830      418 1
     871      238     1307 1
     872      255      640 1
     873     1005      716 1
     874     1111     1513 1
     875      194     1407 1
     876     1013     1250 1
     877      184      611 1
     878      469     1090 1
     879       62     2061 1
     880      443     1604 1
     881     1953     1300 1
     882      269     1755 1
     883      243      817 1
     884     1073     1321 1
     885      836      392 1
     886     1293     1597 1
     887       50      151 1
     888      474     1785 1
     889      795     1119 1
     890      630     1575 1
     891     1817     1383 1
     892      943     1204 1
     893      318     1603 1
     894      801     1356 1
     895     2041      426 1
     896      679     1100 1
     897      687     1463 1
     898      183     1839 1
     899     1340     1705 1
     900     1026      369 1
     901     1255     1564 1
     902      865     1816 1
     903      737      947 1
     904      441     1509 1
     905      245     1056 1
     906      558      665 1
     907     1878      650 1
     908      764     1845 1
     909      854     1961 1
     910      357     1858 1
     911     1008      993 1
     912     1971     1372 1
     913      191     1720 1
     914      822      843 1
     915      801     1279 1
     916      905     2080 1
     917     2055      445 1
     918     1940     1872 1
     919     1042      596 1
     920     1856     1298 1
     921     2016     1364 1
     922       26      990 1
     923      889     1353 1
     924      509     1112 1
     925      453      691 1
     926      304     1670 1
     927      571     1141 1
     928      419      456 1
     929      208      944 1
     930      698     1408 1
     931      239      458 1
     932      526      395 1
     933      583     1794 1
     934      583     1482 1
     935      900      859 1
     936       48      159 1
     937      512     1307 1
     938       20      807 1
     939     1940     1153 1
     940      789      393 1
     941      782     1385 1
     942      231     1676 1
     943     1031     1810 1
     944      714        4 1
     945      931     2103 1
     946      523     1097 1
     947      352     1605 1
     948      500     1700 1
     949       32     1051 1
     950     1969     1371 1
     951     1050     1957 1
     952      876     2065 1
     953      225     1724 1
     954      902        2 1
     955      761     1670 1
     956      980     1066 1
     957     2018     1612 1
     958     1643     1446 1
     959     2074     1177 1
     960      328     1531 1
     961      301      395 1
     962     1180     1205 1
     963     2100     1592 1
     964      893     2076 1
     965     1837     1203 1
     966      802     1974 1
     967     2032      609 1
     968     2011     1149 1
     969      335      991 1
     970     1825      696 1
     971      514     1679 1
     972     1210     1646 1
     973      259     1106 1
     974     2099     1257 1
     975      157     1579 1
     976     1191     1557 1
     977     1734     1653 1
     978      791      381 1
     979      766      464 1
     980      353      930 1
     981      276     1300 1
     982     1543     1649 1
     983     1952     1552 1
     984      906     1762 1
     985      146     2059 1
     986      383     1603 1
     987       55     1529 1
     988      882     1919 1
     989      102     1637 1
     990      203      634 1
     991      624     1703 1
     992       80     1189 1
     993     1916      465 1
     994      724      546 1
     995      991     1228 1
     996     1893     1198 1
     997       68      813 1
     998      104      434 1
     999      329      616 1
    1000     1937     1495 1
    1001      491     1398 1
    1002      476     1270 1
    1003     1018     1421 1
    1004     1842      405 1
    1005      567     1672 1
    1006     1997     1401 1
    1007      181      189 1
    1008      906     1363 1
    1009     1182     1741 1
    1010     2052      624 1
    1011      112     1410 1
    1012     1906      428 1
    1013      603     1806 1
    1014      297      244 1
    1015      311      642 1
    1016     1254     1799 1
    1017     2018     1313 1
    1018      674     1475 1
    1019     1719     1450 1
    1020     1416     1215 1
    1021      700     1325 1
    1022     1836      526 1
    1023      549     1417 1
    1024      745     1994 1
    1025     1394     1767 1
    1026     1935     1327 1
    1027     1991     1471 1
    1028      100     1984 1
    1029     1151     1583 1
    1030      902      995 1
    1031     1882     1504 1
    1032      835     1237 1
    1033     1139     1498 1
    1034      737     1772 1
    1035      296      815 1
    1036     1274     1278 1
    1037      971     2030 1
    1038       28     1143 1
    1039      949      531 1
    1040      699     1114 1
    1041     1073     1803 1
    1042     1989      414 1
    1043      514      391 1
    1044     1023     1835 1
    1045     1907     1300 1
    1046      284     1278 1
    1047     1674     1535 1
    1048      881      494 1
    1049     2079     1656 1
    1050     1896      697 1
    1051     1183     1429 1
    1052      895      625 1
    1053      384     1513 1
    1054      382     1249 1
    1055     1376     1171 1
    1056       45     1202 1
    1057      214     1003 1
    1058      883     1276 1
    1059      815     1987 1
    1060      653     1476 1
    1061      779     2092 1
    1062     1849     1395 1
    1063      856     1758 1
    1064      426     1175 1
    1065     1871     1159 1
    1066      201      591 1
    1067     1990     1423 1
    1068     1810     1941 1
    1069      303     1027 1
    1070      544     1462 1
    1071     2089      660 1
    1072      120      635 1
    1073      879     1200 1
    1074      331     1942 1
    1075     1904     1314 1
    1076     1919     1625 1
    1077     1071      690 1
    1078       27     1765 1
    1079      958     1942 1
    1080      102      518 1
    1081     1905     1621 1
    1082      341     1611 1
    1083     2085     1792 1
    1084     1325     1586 1
    1085     2072     1694 1
    1086      361      113 1
    1087      777     1973 1
    1088     1036     2033 1
    1089      641      536 1
    1090       72     1617 1
    1091     2047     1190 1
    1092      979      712 1
    1093     1080     1178 1
    1094     1043     1567 1
    1095     1735     1755 1
    1096      541       10 1
    1097     1412     1215 1
    1098     1920     1108 1
    1099       39     1233 1
    1100      434     1289 1
    1101      727     1280 1
    1102     1000     1644 1
    1103     1345     1482 1
    1104      720      670 1
    1105      475     1361 1
    1106      543     1122 1
    1107      115     1352 1
    1108      583      656 1
    1109      159      702 1
    1110      207       94 1
    1111      819     2008 1
    1112      618     1346 1
    1113      959     1085 1
    1114     1839     1725 1
    1115       52     1915 1
    1116      996     2016 1
    1117      667     1233 1
    1118      904      782 1
    1119      323      988 1
    1120      419     1656 1
    1121      228     1603 1
    1122      824      470 1
    1123      243      942 1
    1124     1773     1772 1
    1125     1377     1757 1
    1126      280     1774 1
    1127      153      948 1
    1128      353     2073 1
    1129      623     1173 1
    1130      873     1591 1
    1131     1076     1673 1
    1132      239     1094 1
    1133     2016     1187 1
    1134      818     1098 1
    1135      184     1893 1
    1136      344     2053 1
    1137     2004     1647 1
    1138     2098     1099 1
    1139     2037     1543 1
    1140      897     1570 1
    1141     1886     1507 1
    1142      755     2012 1
    1143      974     1577 1
    1144     2091     1457 1
    1145      766      437 1
    1146     1403     1404 1
    1147     1000      576 1
    1148     1886     2100 1
    1149      143      254 1
    1150      601     1101 1
    1151     1810     1675 1
    1152      960     1467 1
    1153     1848     1300 1
    1154      997     1928 1
    1155     1021     1386 1
    1156     1146     1741 1
    1157      493     1792 1
    1158      940     1337 1
    1159      936     1419 1
    1160      225     1949 1
    1161      788     1621 1
    1162      294     1658 1
    1163      922     1169 1
    1164     1860     1401 1
    1165      549     1161 1
    1166       81     1656 1
    1167      235      139 1
    1168      714     1044 1
    1169      249      614 1
    1170      623     1334 1
    1171      998      661 1
    1172     1038      633 1
    1173     1272     1276 1
    1174     1097     1593 1
    1175     1885     1626 1
    1176      430     1526 1
    1177       26      608 1
    1178      815     1418 1
    1179     2028     1930 1
    1180      993     1404 1
    1181      313     1097 1
    1182     1290     1594 1
    1183     1364     1475 1
    1184      192     1594 1
    1185      491     1166 1
    1186     1218     1691 1
    1187     2026      521 1
    1188     2020      528 1
    1189     1062      455 1
    1190     1901      403 1
    1191      241     1062 1
    1192     1631     1481 1
    1193     1069     1970 1
    1194     1910     1685 1
    1195      796     2014 1
    1196     1908     1472 1
    1197      371      474 1
    1198     1854      706 1
    1199       73       17 1
    1200      715     1982 1
    1201      339     1819 1
    1202      364     1439 1
    1203       57     1242 1
    1204     1855      407 1
    1205      828     1467 1
    1206      407     1599 1
    1207      307      686 1
    1208      495      677 1
    1209      200     1255 1
    1210     1223     1565 1
    1211      545     1583 1
    1212      366     1551 1
    1213      180     1635 1
    1214     1235     1560 1
    1215      575      586 1
    1216     1156     1789 1
    1217     1858     1571 1
    1218      581     1622 1
    1219      287      799 1
    1220     1811      625 1
    1221      146     1360 1
    1222     1358     1726 1
    1223      730     1568 1
    1224      402     1285 1
    1225     1135     1680 1
    1226      431     1277 1
    1227       79     1630 1
    1228     1003     1972 1
    1229     1882     2047 1
    1230     1935      398 1
    1231      892      373 1
    1232      954     1163 1
    1233      148     1612 1
    1234      641     1571 1
    1235      845       16 1
    1236      308      418 1
    1237       27     1911 1
    1238     1607     1532 1
    1239     1901     1605 1
    1240     1912      524 1
    1241      672     1676 1
    1242     1833     1817 1
    1243      198     1574 1
    1244      796     1899 1
    1245     1853      462 1
    1246      824     1690 1
    1247      301      942 1
    1248      250     1470 1
    1249      637     1582 1
    1250      380     1647 1
    1251     2033     1223 1
    1252      812     1190 1
    1253     1355     1569 1
    1254      542     1809 1
    1255     1024      406 1
    1256     1838     1362 1
    1257     2058     1695 1
    1258       80     1363 1
    1259      989     1993 1
    1260      964      583 1
    1261      263     1346 1
    1262        5     1262 1
    1263      122     1575 1
    1264       34     1909 1
    1265      646      660 1
    1266      333     1579 1
    1267     1007      611 1
    1268     1581     1749 1
    1269      756     1755 1
    1270     1694     1515 1
    1271      405     1112 1
    1272      256     1441 1
    1273      255     2095 1
    1274      115      613 1
    1275      726     1184 1
    1276     1208     1663 1
    1277      456      686 1
    1278      804     1820 1
    1279     1439     1507 1
    1280      113     1363 1
    1281      916     1369 1
    1282       71      568 1
    1283      993     1742 1
    1284       75      991 1
    1285     1350     1611 1
    1286     1815     1219 1
    1287       31     1704 1
    1288      128     1413 1
    1289     1898      471 1
    1290     1259     1532 1
    1291     2001     1442 1
    1292      176     1242 1
    1293      840     1607 1
    1294      807     1114 1
    1295      854      563 1
    1296     1269     1530 1
    1297     1032      780 1
    1298     2104     1550 1
    1299     2082     1480 1
    1300      893      694 1
    1301      108      449 1
    1302     1261     1486 1
    1303      806     2047 1
    1304     1051     1598 1
    1305     2096     1809 1
    1306      223     1246 1
    1307      980      651 1
    1308      880     1466 1
    1309      434      614 1
    1310      317      575 1
    1311     1902     1555 1
    1312      249     1373 1
    1313     1371     1700 1
    1314      251      502 1
    1315     1350     1789 1
    1316     1422     1791 1
    1317      775     2044 1
    1318     1824     1708 1
    1319      128     1244 1
    1320       78     1120 1
    1321      753     1080 1
    1322      959     1754 1
    1323      466     1486 1
    1324     1892     1428 1
    1325     1569     1777 1
    1326      349     1980 1
    1327     1434     1779 1
    1328       84     2026 1
    1329     1602     1655 1
    1330      689     1645 1
    1331      234      772 1
    1332     1858     1800 1
    1333     2060     1556 1
    1334     1957     1754 1
    1335      875     1657 1
    1336      879     1157 1
    1337      288     1426 1
    1338      843     1802 1
    1339      770     1874 1
    1340       35     1252 1
    1341      186      578 1
    1342       68     1616 1
    1343      804     1043 1
    1344     1227     1265 1
    1345      581     1709 1
    1346      338     1707 1
    1347      448      698 1
    1348      988      866 1
    1349      453     1717 1
    1350     1117     1790 1
    1351       54      558 1
    1352      361     2024 1
    1353       51     1189 1
    1354     2010     1919 1
    1355      824     1699 1
    1356      529     1270 1
    1357     1511     1496 1
    1358      878     2016 1
    1359      664     1343 1
    1360      609     1502 1
    1361      436      486 1
    1362      228     1508 1
    1363     2087     1447 1
    1364      295      884 1
    1365      902     1281 1
    1366      903     1147 1
    1367     1343     1420 1
    1368      970     1928 1
    1369     1342     1383 1
    1370     2008     1578 1
    1371      191     2054 1
    1372      864     1973 1
    1373      431     1132 1
    1374     1959     1449 1
    1375      490     1778 1
    1376       77     1395 1
    1377      787     1562 1
    1378      377     1514 1
    1379     1996     1311 1
    1380     1418     1183 1
    1381      852      634 1
    1382     1280     1767 1
    1383     1105     1505 1
    1384      842     2049 1
    1385     1031     1149 1
    1386      305      454 1
    1387     1452     1483 1
    1388      178       15 1
    1389      435     1460 1
    1390     1183     1801 1
    1391      998     1650 1
    1392      998     2057 1
    1393      787     1323 1
    1394     1207     1745 1
    1395      358      598 1
    1396      928     1649 1
    1397      401     1767 1
    1398      681     1628 1
    1399      257      972 1
    1400      689     1216 1
    1401      275     1929 1
    1402      123     1988 1
    1403     1897     1495 1
    1404      693     1167 1
    1405      112     1133 1
    1406      939     1687 1
    1407      239     1946 1
    1408      591     1626 1
    1409      846      777 1
    1410      317     1329 1
    1411     1920     1399 1
    1412       27     1287 1
    1413     1011      680 1
    1414     2067     1674 1
    1415     1746     1718 1
    1416      524     1121 1
    1417       26     1020 1
    1418      600      687 1
    1419     1338     1105 1
    1420     1839     1613 1
    1421      998     1124 1
    1422      916     1541 1
    1423     2020      422 1
    1424     1833      648 1
    1425       93     1671 1
    1426      181       20 1
    1427      764     1531 1
    1428      749     1194 1
    1429      858     1626 1
    1430     1241     1636 1
    1431      531     1383 1
    1432       39     1007 1
    1433     1140     1798 1
    1434     1089     1170 1
    1435      791     1529 1
    1436     1973     1422 1
    1437     1028     1102 1
    1438      336     1254 1
    1439     2027      455 1
    1440      124      367 1
    1441      315      809 1
    1442      923      593 1
    1443     1635     1727 1
    1444      534     1653 1
    1445     1870     1298 1
    1446     1860     2000 1
    1447      268     1235 1
    1448      138      801 1
    1449      177      730 1
    1450     2000     1467 1
    1451      663     1322 1
    1452     2033      627 1
    1453      654      687 1
    1454     1933     1295 1
    1455      341     1751 1
    1456      356     1733 1
    1457     1021      699 1
    1458      505     1731 1
    1459      208     1914 1
    1460      365       10 1
    1461      169     1310 1
    1462      337     1558 1
    1463      826      772 1
    1464      987     1621 1
    1465      299     1596 1
    1466      204     1602 1
    1467     1934     1462 1
    1468     2071      465 1
    1469     1036      919 1
    1470      183      435 1
    1471     2064     1290 1
    1472     2039      488 1
    1473     1126     1737 1
    1474      379     1734 1
    1475      926     1722 1
    1476     1557     1505 1
    1477     1028     1661 1
    1478      268      755 1
    1479      162     1501 1
    1480      781     1860 1
    1481       19     1384 1
    1482      724      631 1
    1483      846     1964 1
    1484      902     1769 1
    1485     1164     1358 1
    1486      977     1141 1
    1487      926     1713 1
    1488      815      943 1
    1489     1056     1600 1
    1490     1942     1217 1
    1491      751     1842 1
    1492     1911      624 1
    1493      498     1113 1
    1494       18      955 1
    1495     1019      742 1
    1496      214      671 1
    1497      825     1517 1
    1498      926     1585 1
    1499     1963     1629 1
    1500       70     1499 1
    1501     1906      679 1
    1502      325     1415 1
    1503      783     1728 1
    1504     1965     1840 1
    1505      484     1609 1
    1506      542     1546 1
    1507       50       79 1
    1508     1095     1809 1
    1509     1065     1632 1
    1510      423      624 1
    1511      907     1702 1
    1512      865     1936 1
    1513     2090      605 1
    1514      919     1985 1
    1515     2039     1491 1
    1516      871     1091 1
    1517      608     1110 1
    1518      259      414 1
    1519      421      598 1
    1520      872     1728 1
    1521      520     1158 1
    1522     1826      521 1
    1523     1296     1617 1
    1524     1369     1687 1
    1525      821     1051 1
    1526      356     1436 1
    1527      351     1512 1
    1528      134      925 1
    1529      932     1529 1
    1530      211     1752 1
    1531      785      700 1
    1532     2019       15 1
    1533     1902     1389 1
    1534     1253     1200 1
    1535     1008      462 1
    1536      973     1246 1
    1537     1786     1753 1
    1538       23     1861 1
    1539       55     1741 1
    1540     2059     1749 1
    1541     1065     1374 1
    1542     1029      917 1
    1543     2039     1926 1
    1544     1076     1660 1
    1545     2101      607 1
    1546      116     2021 1
    1547     1276     1748 1
    1548      527     1523 1
    1549     1880     1147 1
    1550     1420     1387 1
    1551      548     1508 1
    1552      517     1129 1
    1553      145     1670 1
    1554      765     1789 1
    1555      757     2104 1
    1556     1064      467 1
    1557      938      368 1
    1558      451     1177 1
    1559       40       18 1
    1560      271     1148 1
    1561      220      868 1
    1562      867     1614 1
    1563      743      745 1
    1564      459      493 1
    1565     1373     1365 1
    1566     1056     1033 1
    1567      510      668 1
    1568      766     1844 1
    1569      480     1649 1
    1570     2049     1990 1
    1571      379      674 1
    1572      782     1784 1
    1573       46      873 1
    1574      297      389 1
    1575      292      350 1
    1576     1010      490 1
    1577      969     1137 1
    1578     1684     1685 1
    1579     2054     2098 1
    1580      319     1307 1
    1581      355      566 1
    1582      131      876 1
    1583     2001     1923 1
    1584      885     2075 1
    1585       90      671 1
    1586      310     1489 1
    1587      289     1266 1
    1588     1348     1805 1
    1589     1002     1762 1
    1590      218     1990 1
    1591      241     1730 1
    1592      741     1824 1
    1593     1831     1291 1
    1594     2042      564 1
    1595      370     1249 1
    1596     1884     1403 1
    1597      513     1145 1
    1598     2101     1620 1
    1599       49     1799 1
    1600     1143     1454 1
    1601      897        4 1
    1602      424     1665 1
    1603      826     1295 1
    1604      142     2098 1
    1605      955      595 1
    1606      554     1317 1
    1607     1059      424 1
    1608     1871      540 1
    1609      554      692 1
    1610      963      485 1
    1611      881      945 1
    1612     1005     1847 1
    1613      377      384 1
    1614     1169     1139 1
    1615       48     1273 1
    1616      445     1349 1
    1617      152     1081 1
    1618      899      394 1
    1619     1079     1550 1
    1620      196     1687 1
    1621      222       73 1
    1622      796      442 1
    1623      901     1819 1
    1624      343     1428 1
    1625     1147     1633 1
    1626      778     1345 1
    1627     2028      560 1
    1628      749     1677 1
    1629       40     1644 1
    1630      306     1035 1
    1631      148       98 1
    1632      337     1354 1
    1633     1943     1339 1
    1634      266       95 1
    1635     1831     1578 1
    1636     1999      452 1
    1637      673     1173 1
    1638      282      227 1
    1639      399     1537 1
    1640      515     1524 1
    1641       60      610 1
    1642      309     1647 1
    1643      279     1136 1
    1644      983     1807 1
    1645     1090     1199 1
    1646      353     1704 1
    1647      169     1225 1
    1648      702     1430 1
    1649     1908     1138 1
    1650      851      717 1
    1651      322      473 1
    1652      757     1890 1
    1653      584     1155 1
    1654     1045      619 1
    1655      362       32 1
    1656      923     1732 1
    1657     1122     1752 1
    1658      716     1779 1
    1659      398     1324 1
    1660      155     1231 1
    1661       99      472 1
    1662      811      403 1
    1663     1875     1793 1
    1664     2072      451 1
    1665      733       15 1
    1666     1245     1596 1
    1667       25       31 1
    1668     2038     1738 1
    1669     1818     1699 1
    1670      283     1617 1
    1671      140     1221 1
    1672      279     1876 1
    1673     1878     1606 1
    1674      108     1804 1
    1675     1007     1929 1
    1676      207     1329 1
    1677     1844     1621 1
    1678     2037     1368 1
    1679     1023      497 1
    1680      526     1448 1
    1681      853     1683 1
    1682     2066     1355 1
    1683      565     1574 1
    1684     1020      853 1
    1685      830     1807 1
    1686       33     2061 1
    1687     1888     1776 1
    1688       23     1665 1
    1689      652     1258 1
    1690      202      683 1
    1691     1087     1376 1
    1692       28       34 1
    1693     1051     1856 1
    1694     1813      534 1
    1695     1914     1989 1
    1696     1965     1981 1
    1697      854      444 1
    1698      152      887 1
    1699      289     1126 1
    1700      762     1095 1
    1701      723     1574 1
    1702      198      833 1
    1703      762     1645 1
    1704      170     1674 1
    1705      193     1479 1
    1706     1837      458 1
    1707      242      953 1
    1708      163      390 1
    1709      238     1504 1
    1710      123      105 1
    1711     1067      426 1
    1712     2078     1266 1
    1713     1225     1655 1
    1714     1013     1903 1
    1715     1619     1783 1
    1716      722      951 1
    1717     1063     1312 1
    1718      179     1605 1
    1719      351     1237 1
    1720      131      247 1
    1721       53       56 1
    1722       76     1214 1
    1723      775     1084 1
    1724     1998     1619 1
    1725     1692     1499 1
    1726       51     2064 1
    1727      564     1524 1
    1728       95      649 1
    1729     1948     1760 1
    1730     1311     1803 1
    1731      676     1341 1
    1732      965      710 1
    1733      946     1884 1
    1734     1831     1798 1
    1735     1406     1580 1
    1736       92      982 1
    1737      940     1942 1
    1738     2002     1488 1
    1739      627     1494 1
    1740     1827     1112 1
    1741      641     1132 1
    1742      929     1470 1
    1743      211     1086 1
    1744     1107     1397 1
    1745      839     1756 1
    1746      109     1383 1
    1747      353     1877 1
    1748     1818     1588 1
    1749     1370     1636 1
    1750      292     1451 1
    1751      701     1363 1
    1752      120      559 1
    1753      138      605 1
    1754      285     1454 1
    1755      274     1297 1
    1756     1560     1658 1
    1757      874     1335 1
    1758       95     1104 1
    1759       57      551 1
    1760     2097      708 1
    1761     1038     1389 1
    1762      604     1528 1
    1763      739     1815 1
    1764     2043     2021 1
    1765     1019     1226 1
    1766     2081      367 1
    1767      348     1424 1
    1768     1898      512 1
    1769     2009      438 1
    1770      732     1538 1
    1771      202      941 1
    1772      872     1746 1
    1773     1022      495 1
    1774      720      505 1
    1775        1     1494 1
    1776      431     1808 1
    1777      719      537 1
    1778      265     1396 1
    1779     1355     1781 1
    1780     1344     1793 1
    1781     1057     1597 1
    1782     1876      468 1
    1783     1045      992 1
    1784      345     1487 1
    1785      305      985 1
    1786      448     1693 1
    1787      188     1749 1
    1788      356     1427 1
    1789      714      695 1
    1790      953     1469 1
    1791     1000     1961 1
    1792     1320     1592 1
    1793       89     1689 1
    1794       74      537 1
    1795     1991      544 1
    1796     1054     1218 1
    1797     1989     1724 1
    1798      856     1362 1
    1799      402     1138 1
    1800      784     1076 1
    1801     1040     1136 1
    1802      430      648 1
    1803      385     1414 1
    1804      985      486 1
    1805     1932     1361 1
    1806       94      471 1
    1807     1232     1780 1
    1808     1194     1141 1
    1809      685     1692 1
    1810     2018      573 1
    1811      833     1788 1
    1812     1921     1164 1
    1813     1812     1335 1
    1814     1248     1466 1
    1815      217     1962 1
    1816     1984     1224 1
    1817     1209     1120 1
    1818      311      746 1
    1819      671     1331 1
    1820     1034     1406 1
    1821      965     1303 1
    1822     1037     1746 1
    1823      589     1270 1
    1824     1256     1565 1
    1825     1192     1328 1
    1826     1935     1527 1
    1827      992     1915 1
    1828     1403     1534 1
    1829     1903     1090 1
    1830      264     1176 1
    1831     1525     1450 1
    1832     1988      456 1
    1833     1022      514 1
    1834      303      726 1
    1835       43      732 1
    1836      170      609 1
    1837      175      693 1
    1838      522     1134 1
    1839      146       22 1
    1840     1007      481 1
    1841      455     1566 1
    1842      197     1666 1
    1843     1471     1492 1
    1844     1167     1083 1
    1845      822     1640 1
    1846      955      576 1
    1847      309      592 1
    1848      725     1523 1
    1849      211     1459 1
    1850      899      977 1
    1851     1896      601 1
    1852     1843        5 1
    1853      883     1283 1
    1854      285      709 1
    1855      110     2029 1
    1856     1955     1483 1
    1857      493     1178 1
    1858      342      702 1
    1859     1387     1469 1
    1860     1812      373 1
    1861      933     2081 1
    1862      388      687 1
    1863      738     1481 1
    1864      192     1922 1
    1865      664     1384 1
    1866     1822     2056 1
    1867      941     1590 1
    1868      669     1331 1
    1869      109      644 1
    1870       29     1563 1
    1871      215       41 1
    1872      579      499 1
    1873      412     1204 1
    1874     1701     1705 1
    1875     1867     1405 1
    1876     1970      516 1
    1877      253      789 1
    1878      176     1247 1
    1879      240      625 1
    1880      498     1679 1
    1881      248     1214 1
    1882      299      553 1
    1883      459     1680 1
    1884      112     1092 1
    1885      799     1258 1
    1886      128      966 1
    1887      711     1347 1
    1888      856        2 1
    1889      681     1151 1
    1890       78      568 1
    1891     1889     1771 1
    1892      817      554 1
    1893      267     2020 1
    1894      892      406 1
    1895      894     1310 1
    1896     1213     1522 1
    1897      494     1205 1
    1898      507     1472 1
    1899     1865     1224 1
    1900       66      107 1
    1901     1091     1711 1
    1902     1050     1913 1
    1903      973     1159 1
    1904     2018     1551 1
    1905      344     1082 1
    1906      440     1481 1
    1907     1229     1335 1
    1908      441     1437 1
    1909      431      615 1
    1910      849     1450 1
    1911      190     1563 1
    1912     2025     1509 1
    1913      158      804 1
    1914     2047      536 1
    1915      556     1513 1
    1916     1858     1209 1
    1917      844     1560 1
    1918     2077     1162 1
    1919     2099      393 1
    1920      617     1339 1
    1921      769      373 1
    1922      965     1208 1
    1923     2063      492 1
    1924      176     1109 1
    1925      288     1913 1
    1926      107     1776 1
    1927     1130     1191 1
    1928      919     1944 1
    1929      884      428 1
    1930     1046     1014 1
    1931      100     1318 1
    1932      597     1440 1
    1933      424      670 1
    1934      987     1999 1
    1935      185      632 1
    1936      304     1982 1
    1937       63     1789 1
    1938     1421     1453 1
    1939      626     1410 1
    1940     1395     1459 1
    1941      378     1519 1
    1942        8     1234 1
    1943      535     1260 1
    1944     1063     1375 1
    1945      711     1244 1
    1946      737     1880 1
    1947     1909     1310 1
    1948      558     1558 1
    1949      771     1779 1
    1950      260      435 1
    1951     1436     1426 1
    1952      275      734 1
    1953      562     1784 1
    1954      163      969 1
    1955       42     1550 1
    1956      493     1460 1
    1957     1924     1198 1
    1958      188       34 1
    1959      833      848 1
    1960      949     1432 1
    1961       34      594 1
    1962      250     1661 1
    1963      112     1309 1
    1964       91      846 1
    1965      155     1640 1
    1966      167     2029 1
    1967      973     1804 1
    1968      965     1666 1
    1969      210     1516 1
    1970      194      767 1
    1971      324      193 1
    1972      361      936 1
    1973      830      390 1
    1974     2098     1184 1
    1975      840     1673 1
    1976     1333     1431 1
    1977      568       12 1
    1978       86      613 1
    1979       98      974 1
    1980      312     1325 1
    1981      952     1663 1
    1982     2030     1771 1
    1983      511      521 1
    1984      962      645 1
    1985       83      498 1
    1986     1010     1320 1
    1987     1791     1549 1
    1988      460      603 1
    1989      713     1530 1
    1990     1841      455 1
    1991      157      524 1
    1992     1520     1546 1
    1993      302     1862 1
    1994     2091     2013 1
    1995      460     1207 1
    1996      844     1943 1
    1997     1431     1598 1
    1998     1027     1118 1
    1999     1869     1512 1
    2000      881     1559 1
    2001      575     1179 1
    2002     1055     1153 1
    2003      205     1466 1
    2004      312     1295 1
    2005      876     1716 1
    2006      264      582 1
    2007      923     1231 1
    2008       40     1949 1
    2009      683      662 1
    2010      262     1721 1
    2011      352     2012 1
    2012      347      884 1
    2013     1006      604 1
    2014       91      617 1
    2015     1815      707 1
    2016      232     1503 1
    2017     1352     1773 1
    2018     1128     1524 1
    2019      908     1426 1
    2020     2077      658 1
    2021      557     1089 1
    2022     1821     1517 1
    2023      819     1130 1
    2024      798      597 1
    2025     1014      538 1
    2026     1039     1609 1
    2027     1013     1093 1
    2028      285     1124 1
    2029      723     1415 1
    2030     1606     1705 1
    2031     1811     1428 1
    2032     1897     1462 1
    2033      888      638 1
    2034     1205     1710 1
    2035     2050     1489 1
    2036      989      385 1
    2037      778     1396 1
    2038      345     1206 1
    2039      938     1719 1
    2040      782     1319 1
    2041      134     1698 1
    2042      520     1549 1
    2043     1025     1112 1
    2044      476     1213 1
    2045     1017      590 1
    2046     2101     1610 1
    2047      816     1198 1
    2048      680     1496 1
    2049      758     1509 1
    2050      744     1614 1
    2051     2091     1196 1
    2052      862      624 1
    2053      957     1997 1
    2054      255     1319 1
    2055      133     1433 1
    2056      768      418 1
    2057      711     1305 1
    2058     1687     1708 1
    2059      128     1595 1
    2060      742        9 1
    2061     1993     1805 1
    2062      211     1016 1
    2063      900     1317 1
    2064      816     1536 1
    2065      482     1472 1
    2066     2094     2001 1
    2067     1035     1417 1
    2068     1943     1192 1
    2069      668     1573 1
    2070      174      900 1
    2071      911     1164 1
    2072      802      941 1
    2073      332      392 1
    2074      210      251 1
    2075      300     1977 1
    2076      491     1684 1
    2077      905      436 1
    2078     2021     1216 1
    2079      290      811 1
    2080      359     1329 1
    2081      337     1525 1
    2082      446     1757 1
    2083      358     1572 1
    2084      104     2021 1
    2085     2069      387 1
    2086      252     1776 1
    2087      575     1701 1
    2088      974     1900 1
    2089      226     1664 1
    2090     1905     1682 1
    2091     2075     1240 1
    2092      329     1899 1
    2093     1353     1545 1
    2094     1017     1788 1
    2095      242     1822 1
    2096     1055     1196 1
    2097      988      612 1
    2098       29     1671 1
    2099       36      899 1
    2100       33     1661 1
    2101     1243     1252 1
    2102      301     1667 1
    2103     1015     1040 1
    2104      263      660 1
    2105      223     2043 1
    2106      292      827 1
    2107      319     1439 1
    2108      709      685 1
    2109     1189     1273 1
    2110      314       72 1
    2111     1023     1281 1
    2112     1345     1497 1
    2113      103      697 1
    2114      123     1433 1
    2115      981     1696 1
    2116      678     1233 1
    2117      243     1966 1
    2118     1957      590 1
    2119     1828     2005 1
    2120     2105     1476 1
    2121      500      477 1
    2122     2012     1425 1
    2123     1105     1411 1
    2124      133     1962 1
    2125      118     1608 1
    2126      189     1351 1
    2127      935     1653 1
    2128     1997     1729 1
    2129      734     1198 1
    2130     1945      596 1
    2131      277      570 1
    2132     1841     1515 1
    2133     2058      417 1
    2134      669     1279 1
    2135      824     1797 1
    2136      199     1230 1
    2137     1886     1455 1
    2138      281      772 1
    2139     1315     1225 1
    2140       86      600 1
    2141      302      757 1
    2142      300      946 1
    2143      842     1332 1
    2144     2010     1405 1
    2145     1154     1492 1
    2146      301     1785 1
    2147       49     1110 1
    2148       95     1761 1
    2149     1029      481 1
    2150     1851      698 1
    2151     1473     1728 1
    2152      172     2031 1
    2153      979      934 1
    2154      759     1080 1
    2155      155     2083 1
    2156     1828     1761 1
    2157      413      492 1
    2158      890     1799 1
    2159      376     1563 1
    2160      550     1295 1
    2161      389     1400 1
    2162     1743     1450 1
    2163      346      475 1
    2164      626      463 1
    2165      116      249 1
    2166      215      771 1
    2167     1873     1285 1
    2168      349     1865 1
    2169      666     1567 1
    2170      223     1378 1
    2171      114     1778 1
    2172      473     1429 1
    2173      570     1288 1
    2174      764     1952 1
    2175      285     1650 1
    2176     1987     1689 1
    2177      834     1579 1
    2178     1256     1550 1
    2179     1150     1337 1
    2180      277      336 1
    2181      856     2095 1
    2182      296      553 1
    2183      981     1115 1
    2184     2038     2097 1
    2185      515     1145 1
    2186     1894      434 1
    2187     1977     1660 1
    2188     1971     1089 1
    2189      209     1123 1
    2190      148     1336 1
    2191      326      812 1
    2192      652      560 1
    2193     1935      388 1
    2194      738     2033 1
    2195        9     1120 1
    2196      160     1011 1
    2197      420      579 1
    2198      725     2091 1
    2199     2085     1490 1
    2200     1850     1773 1
    2201      959     1733 1
    2202     1832     1470 1
    2203     1411     1678 1
    2204       60      330 1
    2205      295     1685 1
    2206      236     1705 1
    2207      540     1326 1
    2208      912      854 1
    2209     1829     1556 1
    2210     1563     1444 1
    2211     1032     1323 1
    2212      810      386 1
    2213      197     1601 1
    2214     1177     1441 1
    2215     2087      475 1
    2216      394     1215 1
    2217     1072      876 1
    2218     1127     1619 1
    2219      195      672 1
    2220     1813     1956 1
    2221      151     1084 1
    2222     1774     1540 1
    2223     1041      535 1
    2224     1833     1782 1
    2225     2029     1288 1
    2226      474     1272 1
    2227     2039     1927 1
    2228      895      720 1
    2229      555      392 1
    2230      282      704 1
    2231     1516     1652 1
    2232      132     1488 1
    2233       10     1623 1
    2234      219     1387 1
    2235      800      660 1
    2236     2072     1351 1
    2237     1032     1739 1
    2238     1394     1134 1
    2239     1609     1765 1
    2240      259      529 1
    2241      956     1230 1
    2242     1819     1995 1
    2243      578     1714 1
    2244     2051      562 1
    2245     1330     1298 1
    2246      967     1599 1
    2247        7     1270 1
    2248      258      976 1
    2249     1878      404 1
    2250     1338     1243 1
    2251      803      625 1
    2252      785      557 1
    2253      680     1107 1
    2254      762      420 1
    2255     2060      453 1
    2256      144     1913 1
    2257       14     1316 1
    2258      327      976 1
    2259     1415     1634 1
    2260      286     1750 1
    2261     1409     1488 1
    2262      953      651 1
    2263      638     1581 1
    2264      541     1635 1
    2265     1301     1480 1
    2266     1165     1143 1
    2267      265     1343 1
    2268      829     1467 1
    2269     1958     1341 1
    2270      763     1251 1
    2271     1925     1659 1
    2272      574      535 1
    2273      790      407 1
    2274     2102     1542 1
    2275      774     1140 1
    2276     2079     1138 1
    2277     1384     1493 1
    2278       64     1963 1
    2279      492     1438 1
    2280      728     1523 1
    2281      927      387 1
    2282      581     1313 1
    2283      407     1589 1
    2284     1932     1501 1
    2285      294      293 1
    2286      496     1168 1
    2287     1946     1508 1
    2288     1992     1212 1
    2289     1189     1576 1
    2290     1825      518 1
    2291      196     1974 1
    2292      173     1777 1
    2293       96        6 1
    2294       53      225 1
    2295     1078     1664 1
    2296      969     1834 1
    2297     2075     2067 1
    2298      357     1316 1
    2299     1029     1219 1
    2300      569     1597 1
    2301       22      485 1
    2302       69     1419 1
    2303      898      367 1
    2304      589     1530 1
    2305      971      984 1
    2306      298     1298 1
    2307      294     1357 1
    2308      134     1582 1
    2309     1150     1542 1
    2310      266     1212 1
    2311      793      875 1
    2312      231     1220 1
    2313     1328     1722 1
    2314      271     1979 1
    2315       30     1397 1
    2316      857     1218 1
    2317      482     1275 1
    2318      501     1122 1
    2319     1041     1346 1
    2320     1379     1659 1
    2321      949     1303 1
    2322     1049      561 1
    2323      933     1554 1
    2324      119     1974 1
    2325      201       11 1
    2326       61      500 1
    2327      689     1686 1
    2328      220      797 1
    2329     1978     1380 1
    2330     1440     1504 1
    2331     1148     1284 1
    2332      533     1530 1
    2333      558     1667 1
    2334     2003     1638 1
    2335     1299     1243 1
    2336      789     1976 1
    2337      916     1186 1
    2338      621      391 1
    2339      305       65 1
    2340      620     1608 1
    2341     1346     1506 1
    2342     1930     1217 1
    2343      580     1749 1
    2344     1024      668 1
    2345      264      736 1
    2346      584     1477 1
    2347      508      545 1
    2348     1265     1747 1
    2349      146     1869 1
    2350      287     1843 1
    2351      191     2013 1
    2352     1142     1619 1
    2353      103     2099 1
    2354      762     1727 1
    2355     1054     1276 1
    2356      311     1740 1
    2357      212     1149 1
    2358      986     1552 1
    2359      570     1409 1
    2360       83      621 1
    2361       59     1157 1
    2362      650     1793 1
    2363     1712     1771 1
    2364       24     1115 1
    2365     1891     1939 1
    2366      412     1793 1
    2367       52     1387 1
    2368     1864      688 1
    2369      139      663 1
    2370      520     1794 1
    2371     1021     1479 1
    2372      462     1368 1
    2373       88     1210 1
    2374      272      340 1
    2375      162      270 1
    2376      187     1285 1
    2377       68     1883 1
    2378      333     1372 1
    2379       21      926 1
    2380      244     1264 1
    2381      256     1544 1
    2382     1386     1757 1
    2383     1824     1263 1
    2384     1003     1836 1
    2385      150     1000 1
    2386       82     1981 1
    2387      362      118 1
    2388     1283     1510 1
    2389      918     1960 1
    2390      577      385 1
    2391      742      408 1
    2392      594     1542 1
    2393     1926     1168 1
    2394      186     1371 1
    2395     1873      566 1
    2396      886     1815 1
    2397      898     1424 1
    2398      230     1925 1
    2399      980     1185 1
    2400      197      246 1
    2401     1222     1671 1
    2402      604     1293 1
    2403      257        1 1
    2404     1968     1265 1
    2405     1048      865 1
    2406      243      774 1
    2407       43      274 1
    2408      845      954 1
    2409      315      378 1
    2410      377      647 1
    2411     1287     1524 1
    2412     1259     1572 1
    2413       54      605 1
    2414      602     1638 1
    2415     1083     1641 1
    2416     1423     1617 1
    2417      328     1052 1
    2418     2048     1353 1
    2419      896     1532 1
    2420      485     1085 1
    2421      747     1592 1
    2422      307      585 1
    2423     1077      601 1
    2424      315      330 1
    2425     1116     1663 1
    2426       42     1345 1
    2427      891     1991 1
    2428     1776     1461 1
    2429      982     1927 1
    2430      336      741 1
    2431      172      783 1
    2432       37     1049 1
    2433       64      486 1
    2434     1014      477 1
    2435     1698     1731 1
    2436      801     1956 1
    2437      117     1040 1
    2438      345     2007 1
    2439      338     1851 1
    2440     1831      502 1
    2441     1306     1119 1
    2442     1204     1616 1
    2443      882     1751 1
    2444       74     1341 1
    2445      227      981 1
    2446      166      191 1
    2447      126     1419 1
    2448      217      950 1
    2449     1224     1442 1
    2450      318     1055 1
    2451     1996     1492 1
    2452      248      392 1
    2453      409      616 1
    2454     1160     1415 1
    2455      115     1367 1
    2456     1871     1763 1
    2457     2058      461 1
    2458     1230     1775 1
    2459     1593     1503 1
    2460      418     1435 1
    2461     2070     1267 1
    2462      326      443 1
    2463      456     1446 1
    2464     1049     1302 1
    2465      976      571 1
    2466      255     1103 1
    2467      292      154 1
    2468     1099     1123 1
    2469      278     1083 1
    2470     1572     1527 1
    2471     1818     1385 1
    2472      752     1649 1
    2473      890      919 1
    2474     1047      435 1
    2475      789      913 1
    2476     1056      889 1
    2477      251      483 1
    2478      143     2068 1
    2479      911      492 1
    2480       48     1864 1
    2481     1312     1597 1
    2482     1030     1762 1
    2483      748     1970 1
    2484     2022     1122 1
    2485     1890     1638 1
    2486      144      592 1
    2487      359      763 1
    2488      991      841 1
    2489      588     1519 1
    2490     1114     1715 1
    2491     1004     1100 1
    2492      560     1759 1
    2493     1137     1579 1
    2494      978     1145 1
    2495       16     1671 1
    2496      208      655 1
    2497     2083     2069 1
    2498      244     1654 1
    2499      126       73 1
    2500     2004     1702 1
    2501      140     1975 1
    2502      766     1193 1
    2503      698     1547 1
    2504     2029     1951 1
    2505       88     1120 1
    2506      793      530 1
    2507     1015     1447 1
    2508      743     1322 1
    2509      280     1628 1
    2510      697     1624 1
    2511      848     1508 1
    2512     1959     1390 1
    2513      230     1114 1
    2514     1004      955 1
    2515     1978      422 1
    2516      764     1806 1
    2517     2046      397 1
    2518      314     1154 1
    2519     1795     1443 1
    2520      847     1443 1
    2521      409     1171 1
    2522      355     1447 1
    2523      166     1123 1
    2524       23     1760 1
    2525      726     1683 1
    2526     1778     1474 1
    2527      877      427 1
    2528      893     1336 1
    2529     1370     1762 1
    2530      808      779 1
    2531       66      205 1
    2532      450      380 1
    2533      200     1837 1
    2534      960      706 1
    2535      233      389 1
    2536      832      547 1
    2537      915     1993 1
    2538     1098     1140 1
    2539     1063     1155 1
    2540      836     1405 1
    2541      688     1332 1
    2542      156      465 1
    2543      473     1086 1
    2544     2006     1110 1
    2545      599     1406 1
    2546      908     1512 1
    2547      497     1802 1
    2548      340        8 1
    2549      691        5 1
    2550      217     1577 1
    2551      915     2008 1
    2552       87      566 1
    2553      234       27 1
    2554      656     1486 1
    2555     1402     1372 1
    2556      215       90 1
    2557     1111     1275 1
    2558     1951     1796 1
    2559      468     1625 1
    2560      323     1230 1
    2561      870     1807 1
    2562     1026     1160 1
    2563     2037     1790 1
    2564      161     1379 1
    2565      870     1983 1
    2566     1628     1637 1
    2567      229     1891 1
    2568      752     1480 1
    2569     2076     1139 1
    2570     1066     1915 1
    2571     1048      367 1
    2572      822     1438 1
    2573     1828     2024 1
    2574      350     2001 1
    2575      286     1982 1
    2576      814      770 1
    2577      269     1195 1
    2578     2077     2015 1
    2579      275     2055 1
    2580     2036     1080 1
    2581      790      617 1
    2582      293      520 1
    2583      237     1957 1
    2584      553      470 1
    2585     1424     1554 1
    2586      287      565 1
    2587      121     1145 1
    2588      340     1766 1
    2589      688      701 1
    2590      907     1141 1
    2591      291     1930 1
    2592     1164     1737 1
    2593     1013      612 1
    2594      124     1119 1
    2595     1565     1464 1
    2596      901     2061 1
    2597     1557     1775 1
    2598      632      659 1
@<TRIPOS>SUBSTRUCTURE
       1 RES             1 RESIDUE    0 **** ROOT      0
