@<TRIPOS>MOLECULE
RES
10722 13068 1 0 1
SMALL
NO_CHARGES
@<TRIPOS>CRYSIN
  100.0000   150.0000    18.2760    90.0000    90.0000    90.0000  1  1
@<TRIPOS>ATOM
       1 O           39.3280    24.2340     3.1580 O             1 RES     
       2 O            8.4580    48.5390     6.1960 O             1 RES     
       3 O            9.9370    34.3450     9.7080 O             1 RES     
       4 O           27.9310    20.9500     2.9650 O             1 RES     
       5 Si          34.0510    21.9090     6.4800 Si            1 RES     
       6 O           31.4160    17.1410     7.9150 O             1 RES     
       7 O            7.4230    25.4710     6.7820 O             1 RES     
       8 O           47.1120     3.1090     5.5400 O             1 RES     
       9 O           32.8980     7.8050     9.9470 O             1 RES     
      10 Si          38.7810    11.9610     4.5220 Si            1 RES     
      11 OS          25.3700     1.5880    12.7280 OS            1 RES     
      12 O           28.2200     7.4620    11.4690 O             1 RES     
      13 O           41.5420    22.2820     9.1930 O             1 RES     
      14 OS          31.7550     1.9730    13.4760 OS            1 RES     
      15 Si           1.2140    26.3900     3.6200 Si            1 RES     
      16 O           32.1660    42.1050     9.0280 O             1 RES     
      17 O           26.2930    46.3710     7.6460 O             1 RES     
      18 O           17.5360    25.3840     7.5700 O             1 RES     
      19 Si          37.4340     4.1390     8.1680 Si            1 RES     
      20 O           35.4360    32.8570     8.7280 O             1 RES     
      21 O           23.7070    24.5910     4.9950 O             1 RES     
      22 O            9.6650    31.9680     5.7910 O             1 RES     
      23 Si          45.4860    22.8860    10.2000 Si            1 RES     
      24 Si          19.9930    18.2280    12.3350 Si            1 RES     
      25 O           24.5250    30.7410     7.9630 O             1 RES     
      26 O           32.6640    41.9310    11.4990 O             1 RES     
      27 O            6.5590    27.3500     5.0100 O             1 RES     
      28 Si           8.9520    33.0600     4.9870 Si            1 RES     
      29 O           40.1130    25.9410     9.7650 O             1 RES     
      30 O           20.6210    37.5380     6.4480 O             1 RES     
      31 Si          24.6920    29.4830     6.9840 Si            1 RES     
      32 Si          19.3940    15.7420     5.6330 Si            1 RES     
      33 O           29.8760    11.7970     6.2890 O             1 RES     
      34 O           37.9360    30.6050     3.1040 O             1 RES     
      35 O           49.3000    43.1650     4.7740 O             1 RES     
      36 O           49.2410    15.4300     8.7790 O             1 RES     
      37 Si          16.0040    25.6960     7.5250 Si            1 RES     
      38 O           10.2360     3.4110     9.6970 O             1 RES     
      39 O           43.4210    28.2730     6.3950 O             1 RES     
      40 O            0.1870    40.6520     3.9740 O             1 RES     
      41 O           11.9330    36.8760     3.0060 O             1 RES     
      42 Si          43.8870     0.3740     7.3530 Si            1 RES     
      43 O           23.3580    12.3080    11.7210 O             1 RES     
      44 Si          25.3870    41.5760    12.4880 Si            1 RES     
      45 O           46.0860    21.2950     7.0170 O             1 RES     
      46 O           21.7340     6.6160     4.3500 O             1 RES     
      47 O           23.6280    38.4180    11.4120 O             1 RES     
      48 O           48.4240    30.3200     6.4430 O             1 RES     
      49 O           14.8410    23.7240    11.1040 O             1 RES     
      50 O           13.8720     7.7270     8.0010 O             1 RES     
      51 O           42.9320    35.6550     5.0210 O             1 RES     
      52 Si          14.9580    22.2990    11.7660 Si            1 RES     
      53 Si           1.3660    23.9370     5.4410 Si            1 RES     
      54 O           17.8410    37.7820    13.0870 O             1 RES     
      55 O            2.1070    45.4170     9.4240 O             1 RES     
      56 Si          23.7100    28.9220    12.3920 Si            1 RES     
      57 O           38.9530    35.4330    11.0830 O             1 RES     
      58 O           18.9750    37.1960     8.6150 O             1 RES     
      59 O           20.4090    49.8920     4.6600 O             1 RES     
      60 OS          45.0010    36.9310    13.7540 OS            1 RES     
      61 O           46.3590    38.6730     9.4100 O             1 RES     
      62 Si          30.3630    42.9570     3.6210 Si            1 RES     
      63 Si          47.8950    43.8810     5.0840 Si            1 RES     
      64 O           21.7380    45.4450     8.6830 O             1 RES     
      65 O           29.7260    34.7920    11.3840 O             1 RES     
      66 O           28.0750     5.0820    10.5820 O             1 RES     
      67 Si          24.9300    47.1050     7.6980 Si            1 RES     
      68 O           49.2420    47.3080     4.1190 O             1 RES     
      69 O           30.4550     7.1310    10.0400 O             1 RES     
      70 Si          23.1700     7.2460     4.4180 Si            1 RES     
      71 O           22.6910    40.0080     9.8390 O             1 RES     
      72 O            9.2430    34.4260     5.6130 O             1 RES     
      73 Si          35.9510    45.0840     7.4200 Si            1 RES     
      74 O           13.0020    14.6690    10.0680 O             1 RES     
      75 Si          22.3030    18.2180     3.4300 Si            1 RES     
      76 O           38.6920    44.6600     9.9650 O             1 RES     
      77 Si           5.3750    36.6310     5.4460 Si            1 RES     
      78 O           31.6610     6.9240     7.6810 O             1 RES     
      79 OS           2.1040    44.4950    11.9170 OS            1 RES     
      80 O           10.2660     3.2190    12.0870 O             1 RES     
      81 O           33.2710    37.6820     4.3090 O             1 RES     
      82 O           34.7990    41.8550    10.2240 O             1 RES     
      83 Si          20.4020    45.1770     4.5950 Si            1 RES     
      84 Si          30.0820    17.9670     7.9450 Si            1 RES     
      85 O           30.5780    43.3520     7.2540 O             1 RES     
      86 O           19.3900    32.4830    10.8440 O             1 RES     
      87 O           38.7970    47.0110    10.9690 O             1 RES     
      88 Si          39.4990    19.3740     8.7080 Si            1 RES     
      89 O           42.9490    38.5760     2.4350 O             1 RES     
      90 Si           3.8240    29.5800     7.9930 Si            1 RES     
      91 O           37.3440     8.4030     7.9400 O             1 RES     
      92 O           15.1020    37.0500     8.0510 O             1 RES     
      93 O            9.6790     3.5510     2.8980 O             1 RES     
      94 O           31.5790    43.9430     3.5960 O             1 RES     
      95 Si          35.8900    12.3490     5.6510 Si            1 RES     
      96 O            4.2640     9.0260     4.7800 O             1 RES     
      97 O           44.0270    15.3980     4.9560 O             1 RES     
      98 OS          38.3090    33.0360    11.9640 OS            1 RES     
      99 Si          32.8510    29.5180    12.2650 Si            1 RES     
     100 O           22.9350    41.4540     7.9210 O             1 RES     
     101 O           30.0370    49.7050     3.3810 O             1 RES     
     102 Si           3.5000    38.7530     4.4320 Si            1 RES     
     103 O           38.2010    10.6540     7.5920 O             1 RES     
     104 O            9.7210    44.1600     8.4230 O             1 RES     
     105 O           38.4650    25.9060     8.1340 O             1 RES     
     106 O            6.0940    16.2190     8.6880 O             1 RES     
     107 O           41.3560    36.3370    10.0850 O             1 RES     
     108 Si          15.1630    35.7140     7.3010 Si            1 RES     
     109 O           31.1850     7.8320     5.0870 O             1 RES     
     110 O           24.1550    46.1000     8.5750 O             1 RES     
     111 O            8.2810     6.0230    12.1260 O             1 RES     
     112 O           45.3310    24.4320     9.8760 O             1 RES     
     113 Si          25.6960    37.4590     8.8510 Si            1 RES     
     114 OS           2.2070    13.1450    12.8520 OS            1 RES     
     115 O           49.6470    15.8970     1.3740 O             1 RES     
     116 Si          15.9380    32.7240     8.1010 Si            1 RES     
     117 Si           7.5200    44.1720    12.3700 Si            1 RES     
     118 O           30.4440    23.0700     5.2210 O             1 RES     
     119 O           46.7050    47.7370     5.0130 O             1 RES     
     120 O           11.4490     7.4630     8.7760 O             1 RES     
     121 Si          23.7950     1.6760     6.8390 Si            1 RES     
     122 O            2.8600    30.0720     9.2260 O             1 RES     
     123 Si          21.9800    30.9280     3.3940 Si            1 RES     
     124 O           24.3500    18.9630     7.6670 O             1 RES     
     125 O            8.7010    16.3040     2.2870 O             1 RES     
     126 Si          22.5320    25.0840     4.1390 Si            1 RES     
     127 O            3.2820     9.1310    10.0050 O             1 RES     
     128 Si          18.5560    33.6670    11.4620 Si            1 RES     
     129 O           39.1110    21.6780     2.3750 O             1 RES     
     130 O           17.6690    29.6720     7.1160 O             1 RES     
     131 Si          20.2150     6.4960     4.7090 Si            1 RES     
     132 Si          26.0590    40.8180     5.8490 Si            1 RES     
     133 O           28.9650    38.7850    10.2090 O             1 RES     
     134 O           40.1500    16.6990     2.3940 O             1 RES     
     135 Si          49.4280     0.5340     8.6050 Si            1 RES     
     136 O            4.7720    21.7590     6.4550 O             1 RES     
     137 O           24.2530    33.2980     7.8670 O             1 RES     
     138 Si          10.7020    30.7490     6.1000 Si            1 RES     
     139 O           42.6700     5.6730     5.2900 O             1 RES     
     140 Si          14.2700    49.9640    11.6860 Si            1 RES     
     141 O            6.6100    21.1300    10.0300 O             1 RES     
     142 O           49.4510    11.8250    10.8060 O             1 RES     
     143 O           41.1260    13.8420     9.8870 O             1 RES     
     144 O           45.6810    15.0260     7.0230 O             1 RES     
     145 O           46.7460    26.3010     8.8480 O             1 RES     
     146 O           27.8520    30.1570     5.1630 O             1 RES     
     147 O           14.0080    16.7380     5.3380 O             1 RES     
     148 O           27.0560    41.8310     1.9940 O             1 RES     
     149 Si          13.3490    24.6240     3.2190 Si            1 RES     
     150 O           25.9020    34.8710     4.4290 O             1 RES     
     151 O           20.1230     4.8830     4.5910 O             1 RES     
     152 O           34.1470    15.1210    11.3000 O             1 RES     
     153 Si           1.3730    22.1510     2.9220 Si            1 RES     
     154 O           49.7900    25.9860     3.1710 O             1 RES     
     155 O           32.2150    27.3290     8.7490 O             1 RES     
     156 O           42.4190    13.5680     5.7240 O             1 RES     
     157 O           37.2140     5.2770     9.2580 O             1 RES     
     158 O           40.9980    23.4960     1.5910 O             1 RES     
     159 OS           0.6460    27.9250    13.3760 OS            1 RES     
     160 Si           0.8110    19.1590     9.6580 Si            1 RES     
     161 O           30.5330    18.1760     4.0030 O             1 RES     
     162 O           41.9850    33.4010     8.8860 O             1 RES     
     163 O            6.9590    38.8170    12.1150 O             1 RES     
     164 O           23.5630    28.8290     6.0310 O             1 RES     
     165 Si          36.8960     6.1620    10.4730 Si            1 RES     
     166 OS          30.9060    42.8970    12.8760 OS            1 RES     
     167 O           22.3450    33.7720    10.4280 O             1 RES     
     168 Si          38.7720    49.4470     3.8340 Si            1 RES     
     169 Si          20.6320    28.6790    11.6590 Si            1 RES     
     170 O           29.1060     9.9070     8.0490 O             1 RES     
     171 O            4.3300    16.1090     6.8260 O             1 RES     
     172 Si          46.1970     8.4660     8.6420 Si            1 RES     
     173 O           31.4770    20.9200    10.3250 O             1 RES     
     174 O           23.6740    13.7090     7.1970 O             1 RES     
     175 O           25.7850    16.0530    11.2930 O             1 RES     
     176 Si          25.0720     2.0650    11.2810 Si            1 RES     
     177 O            6.5130    12.3630    10.0980 O             1 RES     
     178 O           31.2430    26.1310     6.4910 O             1 RES     
     179 O           29.5560    43.4330     4.9100 O             1 RES     
     180 O            5.5290    29.6980     4.5780 O             1 RES     
     181 Si          12.1290    29.9390     9.9840 Si            1 RES     
     182 Si          42.9810    42.5610    10.5600 Si            1 RES     
     183 O            0.0220    14.5270     4.1100 O             1 RES     
     184 O           27.5270     6.1070     3.8020 O             1 RES     
     185 Si           9.4180     2.8310    10.8570 Si            1 RES     
     186 O           31.6600    36.1520    10.5500 O             1 RES     
     187 Si          18.5290    31.0570     7.4200 Si            1 RES     
     188 OS          22.9530    45.1110    10.9490 OS            1 RES     
     189 O           47.5310    28.1790     7.5710 O             1 RES     
     190 O           22.0970     2.9560     3.5790 O             1 RES     
     191 O           23.9750    47.1680     6.4300 O             1 RES     
     192 Si          35.6350     7.7970     5.0950 Si            1 RES     
     193 Si          15.2560    25.1420    10.4270 Si            1 RES     
     194 O           18.6580    35.0890    10.6360 O             1 RES     
     195 OS          20.2660    37.5690    13.8000 OS            1 RES     
     196 O           29.7200    18.0810    12.3670 O             1 RES     
     197 O           26.0000    19.8770     4.2940 O             1 RES     
     198 O           41.0400     2.2550     8.1180 O             1 RES     
     199 Si          26.5050     9.2230     5.5330 Si            1 RES     
     200 O           36.9120    40.4130    10.7990 O             1 RES     
     201 O           20.7340    15.2520     4.9050 O             1 RES     
     202 O           19.4960    18.3400    10.8120 O             1 RES     
     203 O           22.9330     2.9620     7.0930 O             1 RES     
     204 O           46.3160    48.9330    13.3120 O             1 RES     
     205 O           25.5590    23.5770     6.4960 O             1 RES     
     206 O           34.9440    48.6380    11.0810 O             1 RES     
     207 Si          25.5740    19.7440    11.9030 Si            1 RES     
     208 O            0.6750    30.5180    10.5840 O             1 RES     
     209 Si          19.9420     6.1710     7.7720 Si            1 RES     
     210 Si          23.1990    12.0790     3.8050 Si            1 RES     
     211 O           30.8380     5.4450     5.9680 O             1 RES     
     212 O           45.9100     7.5290     7.3860 O             1 RES     
     213 Si           3.6840    12.8230    12.3480 Si            1 RES     
     214 OS          18.8100    44.6700    12.2700 OS            1 RES     
     215 Si          38.0060    11.3040     9.0220 Si            1 RES     
     216 O           20.9740    36.1480     4.3800 O             1 RES     
     217 O           33.5230    45.4890     2.9160 O             1 RES     
     218 O           23.1790    31.3580     2.5010 O             1 RES     
     219 Si           9.2410    45.5480     3.3790 Si            1 RES     
     220 Si          34.3650     5.5360    12.3320 Si            1 RES     
     221 Si          39.6160    25.8090     3.1450 Si            1 RES     
     222 O           28.8550    16.9830     8.2740 O             1 RES     
     223 Si          10.8730    25.4460     9.4090 Si            1 RES     
     224 OS           2.9380    27.3670    13.5110 OS            1 RES     
     225 OS          33.3940    45.2420    13.7960 OS            1 RES     
     226 Si          45.8650    31.8970     2.7980 Si            1 RES     
     227 O           43.3990     5.4610    10.9030 O             1 RES     
     228 O           45.3100    32.5620     6.9560 O             1 RES     
     229 O           21.8170    45.9040     5.1190 O             1 RES     
     230 O           42.0710    47.7170     9.4400 O             1 RES     
     231 Si          35.4420    32.0520     7.3890 Si            1 RES     
     232 O           45.1310    14.1860     9.3770 O             1 RES     
     233 O           13.7230     1.3210    12.2550 O             1 RES     
     234 O           28.4180    12.2310     8.3410 O             1 RES     
     235 O           48.1150     3.6560     3.2300 O             1 RES     
     236 O           24.3630    21.2010     2.9820 O             1 RES     
     237 Si           0.4750    39.2730     4.6870 Si            1 RES     
     238 Si          49.8290    17.2240    12.6160 Si            1 RES     
     239 O           11.8830    42.9360     5.5030 O             1 RES     
     240 O           48.1000    18.5900     5.2710 O             1 RES     
     241 Si          13.5760    45.1310     8.3190 Si            1 RES     
     242 O            7.9420    29.6150     8.5510 O             1 RES     
     243 O           19.4490    16.2870     9.2650 O             1 RES     
     244 O           21.8720    33.0660     6.7000 O             1 RES     
     245 Si          28.1680    32.5160     7.8900 Si            1 RES     
     246 O            9.3260    14.7530     6.8240 O             1 RES     
     247 Si          33.4080    23.7200     8.8770 Si            1 RES     
     248 O           22.0920    20.6210     7.5910 O             1 RES     
     249 O            3.4620     6.4040    10.5250 O             1 RES     
     250 Si          37.3120    24.5400    11.4470 Si            1 RES     
     251 O           26.2140    25.8960    11.8030 O             1 RES     
     252 Si          39.0690    17.2800     3.3630 Si            1 RES     
     253 O           38.6180    34.2620     4.5350 O             1 RES     
     254 Si          37.6040    34.2130     3.3530 Si            1 RES     
     255 O            0.7970    42.5890     7.7990 O             1 RES     
     256 O           22.2110    13.2820     3.8790 O             1 RES     
     257 O            3.3010    42.0190     7.2270 O             1 RES     
     258 O           42.6960    40.5310     3.8590 O             1 RES     
     259 Si          17.0000     5.1450     8.0970 Si            1 RES     
     260 O           47.1890    25.8760     6.4000 O             1 RES     
     261 O           42.6210    18.3830    10.7470 O             1 RES     
     262 O            8.0760    15.1190     4.6190 O             1 RES     
     263 Si          45.0950    38.4250    10.3500 Si            1 RES     
     264 O           45.8150     0.0320     1.4580 O             1 RES     
     265 Si          12.9980    31.8610     7.7030 Si            1 RES     
     266 O           18.4430    18.7220     8.4660 O             1 RES     
     267 O           24.4370    16.7460     6.5860 O             1 RES     
     268 Si          14.9540    12.9100     6.0530 Si            1 RES     
     269 O           14.9650    18.7910     9.9840 O             1 RES     
     270 OS          37.9870    44.9430    12.3720 OS            1 RES     
     271 Si          24.7280    26.1950    11.4530 Si            1 RES     
     272 O           47.3630    32.9210     8.3330 O             1 RES     
     273 O           32.0960    16.7640    11.4900 O             1 RES     
     274 O           34.8860    47.1780    12.9650 O             1 RES     
     275 O           12.7500    15.3170     3.5650 O             1 RES     
     276 O           35.1600    41.7720     5.1760 O             1 RES     
     277 O           46.3020    43.3040     9.1230 O             1 RES     
     278 O           21.4630    14.5980     8.6160 O             1 RES     
     279 O           38.8250    47.9060     3.5560 O             1 RES     
     280 O           33.4650     1.9990     3.7860 O             1 RES     
     281 O           27.3030    14.6550     8.4230 O             1 RES     
     282 O           24.3010    27.5890    11.8080 O             1 RES     
     283 O           18.4060    47.3430    11.6440 O             1 RES     
     284 O            6.4100    19.6400     5.3440 O             1 RES     
     285 Si          48.5780    19.7920     6.0330 Si            1 RES     
     286 Si          13.2120     6.2720     4.4060 Si            1 RES     
     287 Si          38.8670    43.7710     3.9090 Si            1 RES     
     288 O           16.1730    35.9180     6.1790 O             1 RES     
     289 Si          46.9800     2.9410     3.9820 Si            1 RES     
     290 O           16.4210    48.9450     5.2640 O             1 RES     
     291 Si          28.4320     0.9860     9.0180 Si            1 RES     
     292 O            3.7910    19.2340    12.2220 O             1 RES     
     293 Si          37.3810    14.3720     9.2660 Si            1 RES     
     294 O           39.6090    17.1140     4.7570 O             1 RES     
     295 O           18.9850    23.2030     4.9360 O             1 RES     
     296 O           33.3830    29.5890     8.6530 O             1 RES     
     297 Si           6.5040    34.3540     3.6440 Si            1 RES     
     298 O           10.6390    41.7210    12.3230 O             1 RES     
     299 Si          21.8010    23.4750    10.1490 Si            1 RES     
     300 O           32.1880     2.9370    11.0530 O             1 RES     
     301 O           48.2850    37.1040     8.2830 O             1 RES     
     302 OS          41.0400     2.3510    12.7430 OS            1 RES     
     303 O           21.6560    15.2860     2.4880 O             1 RES     
     304 Si          23.6110    42.4730     6.8000 Si            1 RES     
     305 Si          39.1900    24.7630     8.9630 Si            1 RES     
     306 OS          23.5860    47.4960    12.0860 OS            1 RES     
     307 OS          35.6550    44.6830    12.9390 OS            1 RES     
     308 O           38.8090    10.5150     5.0240 O             1 RES     
     309 Si           7.5450    17.4300    12.2700 Si            1 RES     
     310 O           11.9280    10.0130     4.3980 O             1 RES     
     311 O           47.4460    12.9720    12.0550 O             1 RES     
     312 O           16.4350     1.3450     6.4240 O             1 RES     
     313 Si          10.3130    11.8920    10.4020 Si            1 RES     
     314 O           23.7810    46.8420     3.9060 O             1 RES     
     315 OS          32.3080    40.5490    13.5250 OS            1 RES     
     316 Si          14.6130    39.8490    10.8620 Si            1 RES     
     317 Si           9.0190     4.2510     4.0900 Si            1 RES     
     318 O           25.1120    14.6520     5.4390 O             1 RES     
     319 Si          44.0140    36.7140     7.7550 Si            1 RES     
     320 OS          48.1550    10.7840    12.7930 OS            1 RES     
     321 OS          14.5800    10.1050    13.9600 OS            1 RES     
     322 OS          30.2540    15.4520    12.2440 OS            1 RES     
     323 O           15.1430    39.4530     9.4470 O             1 RES     
     324 Si          26.1430     3.1790     5.5820 Si            1 RES     
     325 O            0.4530     3.1480     6.2690 O             1 RES     
     326 O           46.8350    49.3910    10.9860 O             1 RES     
     327 O            4.0590    36.5990     8.4880 O             1 RES     
     328 Si          21.9700    14.8470     4.0010 Si            1 RES     
     329 Si           5.4830    21.8870    10.9520 Si            1 RES     
     330 O           12.9610    16.0130    12.0790 O             1 RES     
     331 Si          18.5110    45.7810    11.1700 Si            1 RES     
     332 OS          26.1120     6.5300    13.1560 OS            1 RES     
     333 O           28.9550    11.6580     3.8450 O             1 RES     
     334 O           16.8570     4.4800     9.5660 O             1 RES     
     335 O           12.2070    31.3180     6.4880 O             1 RES     
     336 Si           3.6610    47.9890     3.2660 Si            1 RES     
     337 O            2.3810    38.3960     9.2630 O             1 RES     
     338 O           16.4770    43.0330     5.4360 O             1 RES     
     339 O            8.4010    37.8400     9.9930 O             1 RES     
     340 Si          35.2360    26.0960     9.8200 Si            1 RES     
     341 OS          41.6370    48.2940    12.0470 OS            1 RES     
     342 O           28.3920    45.5220     9.3080 O             1 RES     
     343 Si           8.7650     9.9060     8.6400 Si            1 RES     
     344 Si          31.1860    40.2060     4.6190 Si            1 RES     
     345 O           33.9620     9.7730    11.3540 O             1 RES     
     346 Si          29.9290    38.9810    11.4220 Si            1 RES     
     347 O           46.4470    45.4640     8.5700 O             1 RES     
     348 O            3.8460    49.6770    12.4230 O             1 RES     
     349 O           11.9350    26.3070    10.1220 O             1 RES     
     350 O           34.7310    37.0780     7.2970 O             1 RES     
     351 O            9.9940    32.7270     3.7510 O             1 RES     
     352 OS          45.7050    12.9940    13.9360 OS            1 RES     
     353 Si          18.4620    19.7870     7.3990 Si            1 RES     
     354 O           11.2240    35.5340     6.4810 O             1 RES     
     355 O           43.9110    10.6470     6.2750 O             1 RES     
     356 O           45.5200    36.9650     7.4450 O             1 RES     
     357 O           42.3600    47.1630     6.9220 O             1 RES     
     358 O           21.7830    13.9840    12.3470 O             1 RES     
     359 Si          38.2540    43.6100     8.9210 Si            1 RES     
     360 O            3.3950    11.3600    11.7150 O             1 RES     
     361 Si           6.1610     4.5190     2.9570 Si            1 RES     
     362 Si          35.9990     4.7990     5.4630 Si            1 RES     
     363 O           40.4460     8.8940    11.2490 O             1 RES     
     364 Si          36.3780     8.7640     9.1110 Si            1 RES     
     365 Si           1.8180    27.6390    12.3530 Si            1 RES     
     366 OS          47.8010    37.1470    12.8070 OS            1 RES     
     367 OS          11.1920    45.1340    13.1630 OS            1 RES     
     368 O           48.1120    47.4380    10.4120 O             1 RES     
     369 O           39.5130    20.8610     8.2070 O             1 RES     
     370 O           26.4280    34.1630    11.4740 O             1 RES     
     371 Si          33.3770     3.5300     3.4640 Si            1 RES     
     372 O           36.1180    48.2970     8.6890 O             1 RES     
     373 O           46.7490    17.9500     3.0500 O             1 RES     
     374 O           41.6860    42.9810     6.6740 O             1 RES     
     375 O           37.4760    12.5040     5.3120 O             1 RES     
     376 Si          24.7900    13.2300     6.2040 Si            1 RES     
     377 O           38.1530     4.6200    13.3710 O             1 RES     
     378 O            9.6770    32.6350    11.3050 O             1 RES     
     379 Si          33.9690    22.8690     3.4780 Si            1 RES     
     380 O           43.9820    37.9620     9.3120 O             1 RES     
     381 Si          12.2740    34.9140     7.4100 Si            1 RES     
     382 O           25.0010    18.4920    11.1670 O             1 RES     
     383 O            2.7600    24.2130    10.4020 O             1 RES     
     384 O           42.9580    26.1660    11.8200 O             1 RES     
     385 O           45.1440    14.4450    11.7480 O             1 RES     
     386 Si          40.0110    39.8830     8.6920 Si            1 RES     
     387 OS           4.8870    30.6080    12.7110 OS            1 RES     
     388 O           36.7400    29.8300     5.2550 O             1 RES     
     389 Si          16.6150    44.7830     8.8650 Si            1 RES     
     390 O           14.1100    11.8590     9.6930 O             1 RES     
     391 O            2.0850    44.1560     6.4310 O             1 RES     
     392 Si          39.0470    45.4520    11.2560 Si            1 RES     
     393 Si          46.1120    42.6170    10.5030 Si            1 RES     
     394 Si          15.9470     2.3680     7.5480 Si            1 RES     
     395 O            9.2800    23.5000     7.5290 O             1 RES     
     396 OS          40.7000    34.4120    12.2590 OS            1 RES     
     397 OS          37.3970    49.2820    10.3440 OS            1 RES     
     398 O           27.2990     9.9210     4.3170 O             1 RES     
     399 O           47.5000    17.2100     9.6140 O             1 RES     
     400 O           10.7770    40.0520     8.7900 O             1 RES     
     401 Si          24.9320    24.8970     5.9010 Si            1 RES     
     402 Si          46.2280    36.8130    12.7060 Si            1 RES     
     403 OS          17.5710     7.1020    13.6460 OS            1 RES     
     404 O            3.9580    31.7320     3.9260 O             1 RES     
     405 O           30.0340    48.1820     5.4990 O             1 RES     
     406 Si           2.3960     0.3410    12.1610 Si            1 RES     
     407 Si           1.3740    24.8670    10.7920 Si            1 RES     
     408 O           32.8560    14.0160     5.4360 O             1 RES     
     409 O            5.0360    32.8140    11.2680 O             1 RES     
     410 O            4.3950     1.0660     5.6080 O             1 RES     
     411 Si          11.4700    14.6680     9.6650 Si            1 RES     
     412 O           45.4260    12.4360     7.7160 O             1 RES     
     413 Si          39.5160    33.9090    11.3150 Si            1 RES     
     414 O           42.7260    45.9040    11.9400 O             1 RES     
     415 OS          21.7830     5.7500    13.3060 OS            1 RES     
     416 O            3.4140    40.7410     9.3500 O             1 RES     
     417 O           34.3490    32.3610     3.7950 O             1 RES     
     418 OS           4.0670    45.7170    13.0380 OS            1 RES     
     419 O           16.5320    25.6030    11.2150 O             1 RES     
     420 O            8.3430    40.2150     9.8420 O             1 RES     
     421 O            4.0360    25.3720     8.7120 O             1 RES     
     422 O           30.6800    45.8030     9.3590 O             1 RES     
     423 O           10.0900    10.7120     6.1550 O             1 RES     
     424 O           19.1940    17.1920     5.2050 O             1 RES     
     425 O           37.1160    48.2080    12.3700 O             1 RES     
     426 Si          11.3670    16.3290    12.1810 Si            1 RES     
     427 O            3.1960    13.4610     3.7560 O             1 RES     
     428 O            4.0060    30.3250     6.5690 O             1 RES     
     429 Si          39.5480    34.3190     5.9030 Si            1 RES     
     430 Si          19.5940    18.6870     4.7920 Si            1 RES     
     431 OS          15.5400    11.8900    12.5810 OS            1 RES     
     432 Si           3.2760    22.0430     6.8940 Si            1 RES     
     433 O            4.7160    44.8320     2.2930 O             1 RES     
     434 Si          16.4430     3.1290    10.4140 Si            1 RES     
     435 O           34.7450    20.4650     6.8190 O             1 RES     
     436 O           42.7410    49.4860     7.9210 O             1 RES     
     437 O            9.6600    25.8890     8.2980 O             1 RES     
     438 Si          14.1900    40.4600     5.9330 Si            1 RES     
     439 O            2.1890     7.9920     5.7940 O             1 RES     
     440 O           16.4940    21.9160    12.0070 O             1 RES     
     441 OS           8.7360    23.7110    12.1360 OS            1 RES     
     442 O            9.6740     3.0890     7.3500 O             1 RES     
     443 Si          45.4850     2.3080     9.1260 Si            1 RES     
     444 O           34.5530     1.7420     7.1130 O             1 RES     
     445 Si          47.6950    46.8240     4.1620 Si            1 RES     
     446 O            9.0940    31.8780     9.0570 O             1 RES     
     447 O           32.8540    11.6640    10.2560 O             1 RES     
     448 O           39.9370    12.6720     5.1830 O             1 RES     
     449 O           42.7870     7.5880     3.9020 O             1 RES     
     450 OS          41.5110    44.6970    13.8950 OS            1 RES     
     451 Si           3.5110    26.4870     7.6910 Si            1 RES     
     452 O           24.8100    40.6180     2.1530 O             1 RES     
     453 O           28.0830    19.4000    14.1250 O             1 RES     
     454 Si          45.3360    48.4560     5.2530 Si            1 RES     
     455 O           15.0890    16.2570    10.7830 O             1 RES     
     456 O            1.7470    25.2300     4.6450 O             1 RES     
     457 O           20.2430    49.6870    11.9420 O             1 RES     
     458 Si           1.9550    42.6290     6.7790 Si            1 RES     
     459 Si          21.5380     3.5220     7.4470 Si            1 RES     
     460 O           17.2980    45.0130    10.2930 O             1 RES     
     461 O           14.1450    39.2150     6.8920 O             1 RES     
     462 O           10.4990    19.3050     7.6740 O             1 RES     
     463 Si          14.9070     7.2060     6.9330 Si            1 RES     
     464 Si          28.6810    25.7310     9.3460 Si            1 RES     
     465 O           35.3300    30.3750     2.9760 O             1 RES     
     466 Si           8.6830    43.2050     7.6990 Si            1 RES     
     467 O           14.0870    29.7210     3.3030 O             1 RES     
     468 O           33.0820    22.8120    10.2330 O             1 RES     
     469 O           47.5190    36.2220     3.8790 O             1 RES     
     470 Si          28.5250     6.5820    10.1990 Si            1 RES     
     471 O           10.7470    36.0950    11.4710 O             1 RES     
     472 Si          47.4500    17.4220     4.3660 Si            1 RES     
     473 O           28.1610    15.8470     6.3670 O             1 RES     
     474 OS           1.1650    22.8170    14.2730 OS            1 RES     
     475 O           44.8110     0.9100     8.5730 O             1 RES     
     476 O           18.5750    27.3960     6.6910 O             1 RES     
     477 O           26.1090     3.3020     3.9990 O             1 RES     
     478 Si          42.6060    34.7230     9.4340 Si            1 RES     
     479 Si          45.3720    10.9610     7.0310 Si            1 RES     
     480 O           22.5860    29.5690     3.9380 O             1 RES     
     481 OS          46.9910     8.4630    12.3190 OS            1 RES     
     482 Si          40.2970    31.3540     6.4800 Si            1 RES     
     483 Si           6.0960    33.9830    10.8440 Si            1 RES     
     484 O           12.7440    30.9830     8.8940 O             1 RES     
     485 OS          46.1210     1.2430    12.8700 OS            1 RES     
     486 O           26.2930    30.5420     3.2220 O             1 RES     
     487 O            7.8820    24.5560     9.3200 O             1 RES     
     488 O           27.0360    22.2950     8.3600 O             1 RES     
     489 O           25.2950     0.7040    10.3780 O             1 RES     
     490 Si          24.9280    17.5040     7.8380 Si            1 RES     
     491 O           48.6180     4.1440    10.7340 O             1 RES     
     492 O           25.6520    28.5460     7.8160 O             1 RES     
     493 O           19.8470    24.9840     6.4890 O             1 RES     
     494 Si          41.6370    12.8030    10.9200 Si            1 RES     
     495 Si          35.3520     1.3890    12.1150 Si            1 RES     
     496 Si          46.8970    37.7350     7.7620 Si            1 RES     
     497 O            5.3780    35.8640     6.8210 O             1 RES     
     498 O           45.1740    27.8150     2.8680 O             1 RES     
     499 Si          43.8770    27.3760    11.5510 Si            1 RES     
     500 Si          12.5270     8.5340     8.2720 Si            1 RES     
     501 O            3.5620    28.0480     7.7900 O             1 RES     
     502 O            5.2150    22.8920     2.7460 O             1 RES     
     503 O           46.5290    22.0670     9.2400 O             1 RES     
     504 Si          13.1480    15.3560     5.0550 Si            1 RES     
     505 O           24.9450    29.7810    11.9010 O             1 RES     
     506 O            0.0590    17.7840     9.3110 O             1 RES     
     507 O           19.1170    13.8090     9.2550 O             1 RES     
     508 O            4.0670    37.3420     4.9070 O             1 RES     
     509 O           36.9140    10.2500     9.4460 O             1 RES     
     510 O           35.5640     6.3480     5.5660 O             1 RES     
     511 OS          29.1860    38.1350    12.6570 OS            1 RES     
     512 Si          31.8730    37.3300     3.6020 Si            1 RES     
     513 O           42.7740     3.8650     8.6890 O             1 RES     
     514 O           49.9610    33.5230     2.2830 O             1 RES     
     515 O           36.2550    26.7060     8.7730 O             1 RES     
     516 Si          14.0130    15.1700    11.1740 Si            1 RES     
     517 OS           3.7870    16.7630    12.8830 OS            1 RES     
     518 Si          48.5450     5.0490    12.0960 Si            1 RES     
     519 O           40.6880    22.2130     4.0540 O             1 RES     
     520 O           14.5790    32.1970     7.4600 O             1 RES     
     521 O           40.8770    38.5600     8.8240 O             1 RES     
     522 O           24.8340    43.0310     2.6420 O             1 RES     
     523 Si          30.0510    19.2360     5.0320 Si            1 RES     
     524 O           32.2550     8.4950     2.8570 O             1 RES     
     525 O           45.1300    32.9420     1.8010 O             1 RES     
     526 Si           6.2410    43.4290     9.5200 Si            1 RES     
     527 Si          26.1320    27.2990     4.2450 Si            1 RES     
     528 O           39.7030    43.2250     8.3650 O             1 RES     
     529 O            8.5980    46.3720     2.2240 O             1 RES     
     530 Si          34.6490     3.1510     7.7220 Si            1 RES     
     531 O           15.1550    11.3100     5.9300 O             1 RES     
     532 Si           5.3720    10.0700     4.4590 Si            1 RES     
     533 O           42.3490     7.4910    12.1660 O             1 RES     
     534 O            5.0060     4.4480     4.0530 O             1 RES     
     535 O           19.4280    45.2850     5.8050 O             1 RES     
     536 O           44.4440    46.5930    10.0370 O             1 RES     
     537 O           49.3310    32.3570     9.5320 O             1 RES     
     538 O           30.1120    26.0840     8.9200 O             1 RES     
     539 O           10.4160     1.0990     2.8170 O             1 RES     
     540 O            5.6430    34.8800     9.6260 O             1 RES     
     541 O           10.6130    29.6900     9.5080 O             1 RES     
     542 O           38.9430    30.5190     6.3560 O             1 RES     
     543 O           10.5100     8.1880     5.4640 O             1 RES     
     544 O           18.0080    49.7870    12.4920 O             1 RES     
     545 O           29.9750    18.5390     6.4630 O             1 RES     
     546 Si          43.5010     6.3350    12.2980 Si            1 RES     
     547 O           31.0460    33.8030     5.5130 O             1 RES     
     548 O            8.9270    11.8520    11.1040 O             1 RES     
     549 O           22.6540     0.6510     6.3860 O             1 RES     
     550 O           45.1230    32.2190     9.7350 O             1 RES     
     551 O           15.4250     8.6330     6.4840 O             1 RES     
     552 O           24.3040    33.2740     3.2250 O             1 RES     
     553 O           49.8890    13.0660     8.7600 O             1 RES     
     554 Si           8.1590    11.0630     5.8820 Si            1 RES     
     555 Si           9.7230     6.6800    12.0750 Si            1 RES     
     556 Si          28.4790     8.4120     7.7260 Si            1 RES     
     557 Si           0.5120     7.5370    12.0020 Si            1 RES     
     558 O            9.6710     5.6550     4.5980 O             1 RES     
     559 O           47.4550    13.8010     8.3070 O             1 RES     
     560 O           18.8750    25.6890    11.5620 O             1 RES     
     561 Si           9.6420    29.2860     3.6580 Si            1 RES     
     562 O            6.7420    27.7270     7.4510 O             1 RES     
     563 Si           7.3690    11.2960    10.8940 Si            1 RES     
     564 Si          30.6730    32.5360     9.5370 Si            1 RES     
     565 O           12.3410    33.3180     7.6750 O             1 RES     
     566 Si           5.5320    36.0130     8.4250 Si            1 RES     
     567 Si          23.0290    43.0570    11.1760 Si            1 RES     
     568 Si          40.9590     8.1710     7.5530 Si            1 RES     
     569 OS          19.6480    48.2890    13.7740 OS            1 RES     
     570 O           34.4150    22.6970     5.0520 O             1 RES     
     571 O           21.5930     3.0260     9.0560 O             1 RES     
     572 Si          35.2580    14.0110    11.5060 Si            1 RES     
     573 O           15.8700    32.0780     9.6110 O             1 RES     
     574 O           27.1660    18.1990     2.9840 O             1 RES     
     575 O            2.9420    29.6550     4.5650 O             1 RES     
     576 Si          41.6730    43.7280     5.2710 Si            1 RES     
     577 O           39.1920     0.5770     7.9150 O             1 RES     
     578 O           12.7510    19.8360     9.1320 O             1 RES     
     579 O           21.9460    42.2760    10.3200 O             1 RES     
     580 O           14.1980    38.2730     2.9000 O             1 RES     
     581 O           29.3360    32.1020     8.8840 O             1 RES     
     582 O           49.7930    10.4860     8.6050 O             1 RES     
     583 O           26.2920    12.6820     9.6340 O             1 RES     
     584 O            9.8200    25.0990    10.5220 O             1 RES     
     585 Si          27.4390    19.6000     3.5680 Si            1 RES     
     586 O            6.6230    14.8530     6.6910 O             1 RES     
     587 O            8.6230    49.0540    10.4420 O             1 RES     
     588 O           44.8180    26.8060    10.4470 O             1 RES     
     589 O           11.7380     9.5000     1.6330 O             1 RES     
     590 O           34.5170    24.8560     9.2050 O             1 RES     
     591 O           20.2360     9.1000    10.6340 O             1 RES     
     592 Si          25.7150    41.7100     2.8710 Si            1 RES     
     593 O           34.9960    19.4610     9.2060 O             1 RES     
     594 Si          41.4990    19.5180    11.1150 Si            1 RES     
     595 Si          15.2730    10.2900    12.5260 Si            1 RES     
     596 O           36.2120    18.2560     7.4380 O             1 RES     
     597 O           29.3970    36.5730     9.2700 O             1 RES     
     598 O            5.0300    23.2810    10.2570 O             1 RES     
     599 Si           0.3920    42.2210     4.1890 Si            1 RES     
     600 O            2.2260    26.4020     2.4270 O             1 RES     
     601 O           49.4230    18.8260    12.6940 O             1 RES     
     602 O           27.1160    27.9850     5.1480 O             1 RES     
     603 Si           8.2650    40.9430     4.4180 Si            1 RES     
     604 O           41.1300    22.0980     6.6650 O             1 RES     
     605 O           45.5570    31.9600     4.3400 O             1 RES     
     606 O            0.1660    19.6860     6.1490 O             1 RES     
     607 Si          33.2720     8.2920    11.3850 Si            1 RES     
     608 O           22.7000     0.6170     4.0170 O             1 RES     
     609 O           13.0960    47.7250     5.9260 O             1 RES     
     610 Si          22.7790     1.7000     2.8520 Si            1 RES     
     611 O           16.3630    13.3470     5.6630 O             1 RES     
     612 O           30.9870    48.2450    10.0420 O             1 RES     
     613 O           37.2390    49.7590     3.5030 O             1 RES     
     614 Si          30.8900    16.7310     3.3720 Si            1 RES     
     615 O           26.4990    44.3450     9.2110 O             1 RES     
     616 O           49.2220    26.2600     7.9750 O             1 RES     
     617 OS           3.4010    39.1840    11.4160 OS            1 RES     
     618 O           33.9070    31.6450     7.3760 O             1 RES     
     619 O           43.4510    15.8270    10.1300 O             1 RES     
     620 Si          46.0430    25.0580     5.6030 Si            1 RES     
     621 O            1.8810    26.1950     7.7000 O             1 RES     
     622 O           17.3560     2.2180    11.3970 O             1 RES     
     623 O            7.1550    17.3080     4.0380 O             1 RES     
     624 Si          42.4350    10.2010     5.9260 Si            1 RES     
     625 Si          40.6900     3.0210    11.3890 Si            1 RES     
     626 O           19.9280    29.8800    10.9250 O             1 RES     
     627 O           19.4570    20.9430     7.8900 O             1 RES     
     628 O           10.7040    13.2600     9.7220 O             1 RES     
     629 Si           0.4770     1.6020     5.9420 Si            1 RES     
     630 O            9.4100     1.3120    10.7100 O             1 RES     
     631 Si          18.7360    17.6360     9.5480 Si            1 RES     
     632 O            5.7520    47.8330    12.9800 O             1 RES     
     633 O           19.8340     7.1440     8.9810 O             1 RES     
     634 Si          18.1230     8.5540     3.6600 Si            1 RES     
     635 Si           8.9940    33.1040    10.0430 Si            1 RES     
     636 O           35.6350    37.2760     4.9160 O             1 RES     
     637 O           43.9320    30.7370     6.0400 O             1 RES     
     638 Si          10.3410    36.8300     3.1460 Si            1 RES     
     639 OS          30.0060    34.1070    13.8750 OS            1 RES     
     640 OS          33.7480    33.1240    13.3250 OS            1 RES     
     641 Si           7.3310    43.7630     4.9050 Si            1 RES     
     642 O           12.4480    23.4040     3.5910 O             1 RES     
     643 Si          11.1820    20.0760     8.8680 Si            1 RES     
     644 O           32.3270    36.7830     2.1510 O             1 RES     
     645 Si          26.8970    32.7770    12.0530 Si            1 RES     
     646 O           31.1770    38.7570     3.8720 O             1 RES     
     647 O           42.7610    36.9040     6.8720 O             1 RES     
     648 O            0.1790    45.8030    11.0080 O             1 RES     
     649 O           14.9690    39.8680     4.7060 O             1 RES     
     650 Si          26.2080    35.7160    11.4330 Si            1 RES     
     651 O           33.8200     1.8110    12.2470 O             1 RES     
     652 O           32.2410    24.6310     8.4590 O             1 RES     
     653 O           44.9250     6.9980    12.2900 O             1 RES     
     654 Si          10.0470     6.9750     9.0140 Si            1 RES     
     655 O            4.9290    13.9990     8.3470 O             1 RES     
     656 Si          23.0970    34.0080     6.9800 Si            1 RES     
     657 O           35.3680    49.2480     6.6070 O             1 RES     
     658 O           38.6330     3.1870     8.2330 O             1 RES     
     659 O            9.6790    38.1050     2.4130 O             1 RES     
     660 O           24.3640    25.9410     9.8980 O             1 RES     
     661 Si           1.3860     4.4330     6.3760 Si            1 RES     
     662 O           36.0720    25.4030    10.9870 O             1 RES     
     663 Si          33.3970     0.4560     4.1020 Si            1 RES     
     664 O           47.7770    45.4010     4.5940 O             1 RES     
     665 O           49.6460     0.9140     7.0600 O             1 RES     
     666 Si          49.7490    42.7510     8.8430 Si            1 RES     
     667 O           21.0710     5.0660     7.7670 O             1 RES     
     668 Si          17.6200     8.2770    12.5210 Si            1 RES     
     669 O           23.8990     8.0890     8.4830 O             1 RES     
     670 O           44.9940     6.8110     5.0230 O             1 RES     
     671 O           38.3840    27.7090     9.6910 O             1 RES     
     672 Si           2.3000    49.5910     9.1770 Si            1 RES     
     673 O           11.0760    17.9080    12.0650 O             1 RES     
     674 Si           2.4870    45.5200     5.7490 Si            1 RES     
     675 O            5.1070    13.1130     2.0220 O             1 RES     
     676 O           17.3130    17.3870    10.0950 O             1 RES     
     677 O           38.8030    18.8680     3.1010 O             1 RES     
     678 O            6.2230     5.3790     1.6200 O             1 RES     
     679 O           33.8930    37.3990    11.2720 O             1 RES     
     680 OS          35.5880    37.9490    13.8270 OS            1 RES     
     681 OS           5.7350    22.1460    12.4840 OS            1 RES     
     682 O           49.2590    31.1290     2.4940 O             1 RES     
     683 Si          30.0550    20.4620     9.8690 Si            1 RES     
     684 O            6.6910    21.9270     4.9560 O             1 RES     
     685 O           17.7340    21.6430     3.5230 O             1 RES     
     686 O           19.7000    45.8050    10.1940 O             1 RES     
     687 O           21.0350    10.2870     8.9720 O             1 RES     
     688 Si           0.3040    11.6260     9.5100 Si            1 RES     
     689 Si          47.8920    39.8850     5.9730 Si            1 RES     
     690 Si          25.8660    44.0270    10.5700 Si            1 RES     
     691 O            3.1940     0.0020     7.9500 O             1 RES     
     692 O           33.6470    34.4260     4.8550 O             1 RES     
     693 Si          30.7270    42.4020     8.4770 Si            1 RES     
     694 Si          34.7700    37.8690     3.8180 Si            1 RES     
     695 O            0.9940    10.8450     2.6310 O             1 RES     
     696 O           29.2810    20.1280    11.1720 O             1 RES     
     697 O           18.3850    35.8390     4.7270 O             1 RES     
     698 Si          45.2900    25.8680     9.3100 Si            1 RES     
     699 Si          42.5050    22.3130    10.4510 Si            1 RES     
     700 Si          15.7320    29.5360     3.7050 Si            1 RES     
     701 Si           9.6690    47.8430     5.4930 Si            1 RES     
     702 O           12.3740    48.9220     8.1810 O             1 RES     
     703 O           24.6360     0.9360     7.9300 O             1 RES     
     704 O           19.8080     3.0050     3.2320 O             1 RES     
     705 O           35.4430     0.0010    12.9260 O             1 RES     
     706 O            6.8130    27.9240     9.9120 O             1 RES     
     707 O           36.6000    38.8690     6.7020 O             1 RES     
     708 Si          10.1060    19.0830    11.7060 Si            1 RES     
     709 O           19.5560    15.3870     7.1320 O             1 RES     
     710 O           13.4780    47.4240     3.3610 O             1 RES     
     711 OS          33.1620    11.7520    13.1050 OS            1 RES     
     712 O           10.6930    26.6800     1.2410 O             1 RES     
     713 O           22.8730    22.8310    11.1670 O             1 RES     
     714 O           11.8470    21.1590     4.2940 O             1 RES     
     715 Si          21.9760    12.3940    12.3550 Si            1 RES     
     716 O           12.8560     9.6200     9.3420 O             1 RES     
     717 Si          15.5080    38.7700     3.6850 Si            1 RES     
     718 O           37.2780    42.6790     9.7680 O             1 RES     
     719 O            8.5470    10.3990     4.4330 O             1 RES     
     720 O            4.3780    46.6300     8.9120 O             1 RES     
     721 O           29.9050    45.6210     6.1860 O             1 RES     
     722 Si          33.6080    14.0500     6.7690 Si            1 RES     
     723 O           17.7290    46.9900     5.8550 O             1 RES     
     724 O           13.0630     2.0570     5.8520 O             1 RES     
     725 O           14.9550    20.6690     8.2220 O             1 RES     
     726 O           26.1070    41.4050     4.3750 O             1 RES     
     727 O           26.7350    26.8440     2.9100 O             1 RES     
     728 O           30.0560     2.9350     5.7890 O             1 RES     
     729 O           45.2980    21.2120     4.8160 O             1 RES     
     730 O            9.9770    10.8910     9.1250 O             1 RES     
     731 Si          15.7720    32.3240    11.1840 Si            1 RES     
     732 O           25.9570    32.4380     4.9530 O             1 RES     
     733 O           49.6260    38.0500     4.0950 O             1 RES     
     734 Si          27.7560    22.5190     3.0090 Si            1 RES     
     735 O            6.1310    18.0340    12.6980 O             1 RES     
     736 Si          29.6580    12.5070     4.9570 Si            1 RES     
     737 Si          20.6900     3.4160     4.4270 Si            1 RES     
     738 O           18.0140    37.6140     6.4480 O             1 RES     
     739 Si           7.4400    49.6480     6.7860 Si            1 RES     
     740 O           11.4600    42.1930     3.2080 O             1 RES     
     741 O            7.4840    42.2850     4.2520 O             1 RES     
     742 O           20.4090    41.3470     8.5420 O             1 RES     
     743 O           27.7690    15.8050     3.7780 O             1 RES     
     744 O           20.8050    22.5490     6.6200 O             1 RES     
     745 O           47.1940     9.1690     3.9050 O             1 RES     
     746 OS          43.1990    32.2580    11.8910 OS            1 RES     
     747 OS           2.5250     1.7930    12.7490 OS            1 RES     
     748 O           15.8720    31.1240     3.5680 O             1 RES     
     749 OS          36.9670    23.0980    12.0190 OS            1 RES     
     750 O           24.6860     5.7720     8.6550 O             1 RES     
     751 Si           3.3320    17.0320     2.8190 Si            1 RES     
     752 O           46.1960    19.5610     9.2260 O             1 RES     
     753 O            4.2990    11.6510     9.3740 O             1 RES     
     754 Si          43.9040    20.4480     4.8120 Si            1 RES     
     755 O           24.8680    35.8760    12.2940 O             1 RES     
     756 O           23.6580    18.9010     3.6840 O             1 RES     
     757 Si          14.1220    37.2970    12.4430 Si            1 RES     
     758 Si          48.3240     3.2150     9.4960 Si            1 RES     
     759 O            8.7600    45.0380    12.2370 O             1 RES     
     760 Si          35.3480    34.2110     9.5120 Si            1 RES     
     761 Si          47.0210     0.0510    12.4420 Si            1 RES     
     762 O           19.9310    33.8980     5.2210 O             1 RES     
     763 O            7.6010    34.5360     2.5650 O             1 RES     
     764 O           15.1770    44.2300     2.7320 O             1 RES     
     765 O           41.9330    37.9030     4.7360 O             1 RES     
     766 Si           6.2890    17.4690     9.5750 Si            1 RES     
     767 O           10.2860     1.4390     5.2360 O             1 RES     
     768 O           23.4720    43.8750     7.4750 O             1 RES     
     769 O            6.0160    44.9060     9.1190 O             1 RES     
     770 Si          12.5860     9.9290     3.0050 Si            1 RES     
     771 O            2.3750    15.4810     5.2860 O             1 RES     
     772 OS          27.3190    29.2610    12.4900 OS            1 RES     
     773 Si           5.0570    13.0090     9.6470 Si            1 RES     
     774 O           18.5420     5.3050     7.9260 O             1 RES     
     775 O           48.6410    43.7890     8.4790 O             1 RES     
     776 O           11.8310    30.9040    11.1600 O             1 RES     
     777 O           35.0670    13.4710     6.3520 O             1 RES     
     778 Si          42.0050    38.9920     3.5840 Si            1 RES     
     779 O            8.0640    40.0100     3.0870 O             1 RES     
     780 Si          28.7100    37.9400     8.8920 Si            1 RES     
     781 Si           1.4570     7.3840     7.0950 Si            1 RES     
     782 O           19.5950    31.6930     6.4870 O             1 RES     
     783 Si          20.2910    10.6330    10.3250 Si            1 RES     
     784 O           49.4830     9.5720     4.3120 O             1 RES     
     785 Si          49.2360    30.9390    10.2300 Si            1 RES     
     786 O           29.8460    41.2250     8.0550 O             1 RES     
     787 Si          19.0220    25.9820     7.4110 Si            1 RES     
     788 O           23.4690    13.3370     9.5400 O             1 RES     
     789 Si          23.9240    24.9980     8.7160 Si            1 RES     
     790 OS          33.2710    37.9530    13.2690 OS            1 RES     
     791 OS          22.4530    21.1830    13.0020 OS            1 RES     
     792 O           25.8540    25.8150     5.0220 O             1 RES     
     793 O           40.4720    31.4740     8.0220 O             1 RES     
     794 Si          49.0790     9.2880     7.9830 Si            1 RES     
     795 OS           6.2560     6.2770    13.5190 OS            1 RES     
     796 Si          34.2060    40.7980     4.4520 Si            1 RES     
     797 O           38.6100    37.7160     3.1690 O             1 RES     
     798 Si           7.0770    20.2490     8.8390 Si            1 RES     
     799 Si          48.9090    46.5840    11.4290 Si            1 RES     
     800 Si          34.5520     9.9310     7.0270 Si            1 RES     
     801 Si          20.0360    31.2220    10.1190 Si            1 RES     
     802 O            2.8930    22.2920     2.5400 O             1 RES     
     803 Si          27.6670    16.0710     7.8400 Si            1 RES     
     804 O           28.8060    13.8260     5.0430 O             1 RES     
     805 Si          24.8180    12.7050    10.9700 Si            1 RES     
     806 Si          48.9160    33.1910     8.2340 Si            1 RES     
     807 Si          19.3220    38.0950    12.5930 Si            1 RES     
     808 Si           1.9380    35.8990    11.6940 Si            1 RES     
     809 O           45.7460    37.2740    11.2740 O             1 RES     
     810 O           41.7790    30.2140    12.0810 O             1 RES     
     811 Si          19.9030    14.9890     8.5670 Si            1 RES     
     812 O           25.7710     4.4830     6.4720 O             1 RES     
     813 O           48.9850    32.2290     4.6010 O             1 RES     
     814 Si          37.7750    39.8480     6.4840 Si            1 RES     
     815 O            8.1810     1.0180     6.6000 O             1 RES     
     816 O            7.9860     9.8280     2.0970 O             1 RES     
     817 Si          29.5330    33.3360     5.4390 Si            1 RES     
     818 O           46.2350    23.4670     5.7550 O             1 RES     
     819 Si          17.2150    28.3100     6.4770 Si            1 RES     
     820 O           23.2530     7.7300     5.9480 O             1 RES     
     821 O           20.2230    41.7250     6.0320 O             1 RES     
     822 Si          14.1060     2.9270    12.3560 Si            1 RES     
     823 O           19.4250    26.0820     8.9530 O             1 RES     
     824 Si           7.2080    48.9900     9.7760 Si            1 RES     
     825 OS          13.0180    37.7460    13.3970 OS            1 RES     
     826 Si          49.0280    16.6680     9.7360 Si            1 RES     
     827 O           38.7140    39.7180     7.7470 O             1 RES     
     828 Si          30.7840    46.8420     5.9520 Si            1 RES     
     829 O           10.4830    29.8580     4.8470 O             1 RES     
     830 O           43.3200    41.9460     1.6670 O             1 RES     
     831 Si          18.2410    12.9120    10.1490 Si            1 RES     
     832 O           10.7840    43.1810    10.3760 O             1 RES     
     833 O           42.2450    42.8690     9.2390 O             1 RES     
     834 Si          28.5000    22.7930     8.3570 Si            1 RES     
     835 O            4.2370    21.0310    10.8790 O             1 RES     
     836 O           31.8450     8.4730    11.9550 O             1 RES     
     837 O           44.0220    22.2570     9.9290 O             1 RES     
     838 Si          39.1410    49.3650     6.8780 Si            1 RES     
     839 O           10.8590    15.6080    13.4570 O             1 RES     
     840 Si           5.3790     0.2450     4.5480 Si            1 RES     
     841 O            8.0870    10.3600     7.2540 O             1 RES     
     842 O           29.9120    43.3700     9.5960 O             1 RES     
     843 Si          43.3470    17.3420     9.7490 Si            1 RES     
     844 O           21.2180    38.5560     4.1250 O             1 RES     
     845 Si          46.2780    18.2610    10.0530 Si            1 RES     
     846 O           19.3690    39.5920     7.2420 O             1 RES     
     847 O           47.3990    13.5140     4.6950 O             1 RES     
     848 Si          29.8150    33.5000    12.2720 Si            1 RES     
     849 O           29.7090     4.6080     3.9520 O             1 RES     
     850 O           24.4790     6.5760     3.9720 O             1 RES     
     851 Si          45.4830     0.4720     2.9760 Si            1 RES     
     852 O           42.9600    21.7040     4.9030 O             1 RES     
     853 O           11.2310    19.0010     2.7990 O             1 RES     
     854 Si          30.8700     8.1510     3.5780 Si            1 RES     
     855 Si          10.7240    44.5390     9.5680 Si            1 RES     
     856 O           44.5910     3.2770    10.0920 O             1 RES     
     857 OS          40.6880    12.9890    12.1640 OS            1 RES     
     858 O           23.7620    34.0750     5.5450 O             1 RES     
     859 O           28.5770    19.4320     4.6810 O             1 RES     
     860 Si          48.8450    32.4750     3.0400 Si            1 RES     
     861 O            2.2640    28.7650    11.3580 O             1 RES     
     862 O            8.7090    18.4050    12.0580 O             1 RES     
     863 Si          36.6600    29.8290     3.7120 Si            1 RES     
     864 O           24.6190    21.3980     7.7070 O             1 RES     
     865 Si          39.7760    27.3710    10.4760 Si            1 RES     
     866 OS          48.4250    30.9370    11.5870 OS            1 RES     
     867 O           36.1050     3.2680     8.2910 O             1 RES     
     868 O           12.4430     1.3040     8.2790 O             1 RES     
     869 Si          33.4360    16.4340    10.8380 Si            1 RES     
     870 Si          30.7530     4.1730     5.0870 Si            1 RES     
     871 O            6.1070    38.0600     5.8620 O             1 RES     
     872 O           38.6680    36.4770     8.9480 O             1 RES     
     873 Si          11.1630     9.6020     5.7720 Si            1 RES     
     874 Si          40.3730    14.4940     8.7190 Si            1 RES     
     875 O           49.6810    32.3530     7.0340 O             1 RES     
     876 OS          14.2170    22.5440    13.1760 OS            1 RES     
     877 O           33.6960    15.5260     7.1440 O             1 RES     
     878 O           34.6540    49.6130     3.8450 O             1 RES     
     879 O            0.6790    30.3410     5.3820 O             1 RES     
     880 Si          19.0850    48.6460    12.2470 Si            1 RES     
     881 Si          22.1510     2.9900    10.5480 Si            1 RES     
     882 O           34.7300    36.8210     2.4400 O             1 RES     
     883 O            2.4910    18.3390     2.9200 O             1 RES     
     884 Si          46.3210    41.5570     3.9180 Si            1 RES     
     885 O           35.5150    12.7300     1.6720 O             1 RES     
     886 O           20.6750    35.7400     9.5880 O             1 RES     
     887 O           44.1660    26.3470     8.2340 O             1 RES     
     888 Si           0.5010    25.4290     7.9210 Si            1 RES     
     889 O           25.2210    39.4880     5.9300 O             1 RES     
     890 OS          46.3090    35.2350    12.6710 OS            1 RES     
     891 O           19.1550     7.3510     3.9290 O             1 RES     
     892 O           24.3180    25.4750     7.2570 O             1 RES     
     893 O           44.5330    42.4470    10.6150 O             1 RES     
     894 O           32.8890    37.2560     8.9580 O             1 RES     
     895 O            1.4300     7.6250    13.2710 O             1 RES     
     896 Si          10.0770    18.5520     6.3800 Si            1 RES     
     897 Si          15.4110    12.2030     8.9330 Si            1 RES     
     898 Si          23.5250    22.0570    12.3530 Si            1 RES     
     899 O           32.6580    29.0700    10.7970 O             1 RES     
     900 O           18.9780    11.5120    10.0640 O             1 RES     
     901 OS          25.6930    19.3670    13.4870 OS            1 RES     
     902 O           42.1530     9.8200     4.4030 O             1 RES     
     903 OS          31.5440    17.1520    13.7880 OS            1 RES     
     904 O           18.3820     7.7760    11.1990 O             1 RES     
     905 Si          19.9120    25.9010    10.4390 Si            1 RES     
     906 Si          21.2670    39.6860     3.0300 Si            1 RES     
     907 O           10.3610    44.5950     2.8460 O             1 RES     
     908 O           19.7400    45.9700     3.4200 O             1 RES     
     909 Si          18.8430    10.6020     5.8770 Si            1 RES     
     910 O           11.3070    24.0840     8.6510 O             1 RES     
     911 OS          21.1670     1.4560    13.9310 OS            1 RES     
     912 O            8.0970    29.2030     4.1690 O             1 RES     
     913 O           33.8360    10.8010     2.9710 O             1 RES     
     914 O            1.1100    20.6060     3.1090 O             1 RES     
     915 Si          46.7980    20.7630     8.3390 Si            1 RES     
     916 O           12.9400    38.4750     8.8170 O             1 RES     
     917 Si          29.6600    44.8580    10.0510 Si            1 RES     
     918 O           11.2120    15.4640     8.3510 O             1 RES     
     919 Si          39.6190     2.0610     8.6460 Si            1 RES     
     920 OS          19.3910    39.6610    12.7410 OS            1 RES     
     921 O           47.5620     7.4470     5.5700 O             1 RES     
     922 Si          39.2700    36.7440    10.3940 Si            1 RES     
     923 O           43.0340    18.0030     8.3440 O             1 RES     
     924 Si          31.7660     6.8110     9.2550 Si            1 RES     
     925 O            2.4310    20.7180     6.6690 O             1 RES     
     926 Si          41.7730    44.6900    12.3280 Si            1 RES     
     927 O           28.3720    33.8490     7.0030 O             1 RES     
     928 OS          12.9090    27.3060    12.5350 OS            1 RES     
     929 Si           4.1990     5.0560    10.8450 Si            1 RES     
     930 O           39.9540     5.4880     5.1340 O             1 RES     
     931 Si           2.1290    14.5270     4.0690 Si            1 RES     
     932 Si          23.8080     8.7590     7.0580 Si            1 RES     
     933 O           15.0930     0.7780     4.4410 O             1 RES     
     934 O           34.8950     4.1750     6.5650 O             1 RES     
     935 OS          34.3920    29.4680    12.5620 OS            1 RES     
     936 O            3.3300    22.7720     8.3380 O             1 RES     
     937 O           18.1330     9.5050     2.4330 O             1 RES     
     938 O           12.2920    44.5360     9.1110 O             1 RES     
     939 O            6.9350    20.8710     7.3810 O             1 RES     
     940 Si           8.2440    37.4110     8.3920 Si            1 RES     
     941 OS          25.8330    15.4440    13.8280 OS            1 RES     
     942 Si          13.5490    34.3190    11.9030 Si            1 RES     
     943 Si          19.7110     7.5830    10.4450 Si            1 RES     
     944 Si          28.6080    15.3720     4.9640 Si            1 RES     
     945 O           39.9930     4.1720     3.0720 O             1 RES     
     946 Si          25.0340    32.0940     8.5620 Si            1 RES     
     947 O           43.6290    33.2150     5.0040 O             1 RES     
     948 Si          11.3430    41.5240     4.6710 Si            1 RES     
     949 Si          27.0130    13.1390     8.3330 Si            1 RES     
     950 Si          48.9600    13.6160     4.9470 Si            1 RES     
     951 O           26.9220    29.1920     9.9540 O             1 RES     
     952 Si           6.3490    26.5680     6.4490 Si            1 RES     
     953 O           26.2180     3.1580    10.9840 O             1 RES     
     954 O           33.2120    16.3800     9.3320 O             1 RES     
     955 OS           6.4260    34.7250    12.1420 OS            1 RES     
     956 O           19.1830    48.4110     2.8480 O             1 RES     
     957 Si           2.8540    46.5740     8.6460 Si            1 RES     
     958 O           40.5630    35.5950     5.7950 O             1 RES     
     959 O           33.2630    10.6490     7.6910 O             1 RES     
     960 O           44.8170    49.4930     6.4370 O             1 RES     
     961 O           15.8050     0.2400    11.7960 O             1 RES     
     962 Si          29.1690    40.2680     6.9740 Si            1 RES     
     963 O           24.2300    32.0940     9.9360 O             1 RES     
     964 OS          36.0060    14.0500    12.9430 OS            1 RES     
     965 Si           4.1400    31.8930    12.2360 Si            1 RES     
     966 O           13.9600    35.7890    11.8600 O             1 RES     
     967 O           10.1560    17.0980     6.7790 O             1 RES     
     968 O           31.4100    38.4720    11.0010 O             1 RES     
     969 O           16.3110     9.1870    12.1930 O             1 RES     
     970 O           49.7160     6.1130    11.9960 O             1 RES     
     971 Si          46.2190     6.7850     6.0930 Si            1 RES     
     972 OS          49.4500     8.6740    12.1600 OS            1 RES     
     973 O            0.5590    24.8310     9.4250 O             1 RES     
     974 O           31.0190    12.8100     4.2520 O             1 RES     
     975 O           42.5120    13.8110     3.3200 O             1 RES     
     976 O           44.9820    35.0040     3.9540 O             1 RES     
     977 Si          47.8900    40.3320     9.3920 Si            1 RES     
     978 OS          40.7650    19.2600    12.4870 OS            1 RES     
     979 O           49.3310    34.6780     8.0710 O             1 RES     
     980 O            3.8620    16.9500     1.4150 O             1 RES     
     981 O            6.5610     9.2230     3.8240 O             1 RES     
     982 O           34.6850    12.5290    11.3780 O             1 RES     
     983 Si          24.1050    39.4900    10.4800 Si            1 RES     
     984 O           33.2570     0.2650     5.6660 O             1 RES     
     985 O           22.7900     9.8900     7.1890 O             1 RES     
     986 O           32.6950    35.6060     6.7950 O             1 RES     
     987 OS           5.9340    28.2390    12.2320 OS            1 RES     
     988 O           29.9530    15.9870     4.5410 O             1 RES     
     989 Si          45.8740    13.8780     8.0790 Si            1 RES     
     990 O           43.1760    24.2670    13.5710 O             1 RES     
     991 O           34.1640    17.8210    10.9570 O             1 RES     
     992 Si          49.1160    20.2060    11.9690 Si            1 RES     
     993 O           15.7400    10.8380     8.1330 O             1 RES     
     994 Si           5.7440    46.3750     9.5310 Si            1 RES     
     995 O           38.2740    24.3050    10.1730 O             1 RES     
     996 O           43.1520     1.7600     6.8610 O             1 RES     
     997 O           24.4440    16.8930     9.2070 O             1 RES     
     998 Si          47.1230    44.1060     8.0430 Si            1 RES     
     999 Si          32.3110    13.8020     4.0170 Si            1 RES     
    1000 O           27.0840     0.2090     8.7460 O             1 RES     
    1001 Si          42.5260    24.7440    12.2770 Si            1 RES     
    1002 O           48.5480     9.5350     6.5140 O             1 RES     
    1003 O           32.0830     5.2400     9.5810 O             1 RES     
    1004 Si          30.7770     6.9750     6.3810 Si            1 RES     
    1005 O           32.6560    17.3460     3.5770 O             1 RES     
    1006 Si          22.9830    46.9500     5.2330 Si            1 RES     
    1007 Si          10.7820    22.8880     7.5800 Si            1 RES     
    1008 O           37.9150    35.4680     2.4360 O             1 RES     
    1009 Si          28.5620    10.2560     3.2980 Si            1 RES     
    1010 O           39.5970     8.4610     6.8880 O             1 RES     
    1011 OS          28.0860    27.0470    12.8440 OS            1 RES     
    1012 Si          12.4540     0.0520     9.2110 Si            1 RES     
    1013 O           46.1330    18.2330    11.5320 O             1 RES     
    1014 O           25.1730     9.3400     6.4250 O             1 RES     
    1015 O           33.3330    44.0330    10.0310 O             1 RES     
    1016 O           41.8390    24.0760     5.2260 O             1 RES     
    1017 Si          37.3600    17.2670     7.9960 Si            1 RES     
    1018 Si          28.2610    28.7300     5.8670 Si            1 RES     
    1019 Si          30.2820     8.1480    12.0040 Si            1 RES     
    1020 O            3.8730     2.3210     7.7110 O             1 RES     
    1021 OS           9.8770    49.4910    12.5530 OS            1 RES     
    1022 O           14.0220    10.2330    11.5570 O             1 RES     
    1023 Si          22.5800    13.5060     8.3100 Si            1 RES     
    1024 O           49.1180     1.8730     9.3660 O             1 RES     
    1025 Si          48.9490    14.0960     8.0240 Si            1 RES     
    1026 Si          46.8790     3.8960     6.8860 Si            1 RES     
    1027 O           35.4650    32.8620     6.0240 O             1 RES     
    1028 O           27.1510    37.9040     8.7450 O             1 RES     
    1029 Si          17.7620    23.1290     3.9820 Si            1 RES     
    1030 O           26.4320    17.0710     7.9550 O             1 RES     
    1031 O           23.7870    28.9780    13.9750 O             1 RES     
    1032 O           14.9030    22.0870     6.1110 O             1 RES     
    1033 O           16.5420    43.3890     8.1150 O             1 RES     
    1034 O            0.9190    22.9880     4.2150 O             1 RES     
    1035 Si          17.7200    13.2740     4.9340 Si            1 RES     
    1036 O            5.1420    42.4580     8.9610 O             1 RES     
    1037 O           34.5830     8.8080     5.8920 O             1 RES     
    1038 O           27.9120    44.4110     6.9660 O             1 RES     
    1039 Si          48.7060    12.1020    12.1750 Si            1 RES     
    1040 O           40.0080     4.3710    11.6840 O             1 RES     
    1041 O           18.3840    14.6960     5.1130 O             1 RES     
    1042 O            5.2630    46.3220    11.0400 O             1 RES     
    1043 O           47.8390    21.1070     5.3680 O             1 RES     
    1044 Si          26.3970    15.0080    12.4620 Si            1 RES     
    1045 O           42.3170    26.3140     6.2530 O             1 RES     
    1046 O           25.3350     7.2390    10.7060 O             1 RES     
    1047 Si          31.4810    26.0880     8.1040 Si            1 RES     
    1048 O           49.2420    36.2610     5.9950 O             1 RES     
    1049 O           46.9280     2.4810     9.7930 O             1 RES     
    1050 O           36.5390    30.8970     7.4160 O             1 RES     
    1051 O           32.5680    21.7720     6.0700 O             1 RES     
    1052 O            1.2920    19.6120     8.2810 O             1 RES     
    1053 O           24.1240    12.2340     5.0580 O             1 RES     
    1054 Si           3.8400     3.8590     8.0030 Si            1 RES     
    1055 Si           2.7330     7.5870     9.8720 Si            1 RES     
    1056 O            7.5060    25.9090    11.4880 O             1 RES     
    1057 Si           8.4160    24.7610     7.8710 Si            1 RES     
    1058 OS           1.2370    16.9980    13.2580 OS            1 RES     
    1059 O           14.4070     2.7210     7.7180 O             1 RES     
    1060 O           25.0570    40.4720    11.2770 O             1 RES     
    1061 O           21.3450    31.9200     4.4470 O             1 RES     
    1062 Si          11.9350    39.3810     9.6200 Si            1 RES     
    1063 Si          12.9040     2.3990     7.3500 Si            1 RES     
    1064 O           34.6530     4.1580     4.0910 O             1 RES     
    1065 Si          20.6580    32.5660     5.7020 Si            1 RES     
    1066 O            9.9550     6.7670    10.5320 O             1 RES     
    1067 O            6.3270    49.7210     5.6860 O             1 RES     
    1068 O           28.0230    23.1170     4.3880 O             1 RES     
    1069 Si          13.5940     1.3770     4.4050 Si            1 RES     
    1070 O           26.0460    12.7870     7.0520 O             1 RES     
    1071 Si           8.1330    39.0510    11.0320 Si            1 RES     
    1072 O           29.3400     0.0210     9.9030 O             1 RES     
    1073 OS          20.6290    19.5290    12.8240 OS            1 RES     
    1074 O           46.3110    16.6070     5.0460 O             1 RES     
    1075 O           35.1690     9.0720     8.2150 O             1 RES     
    1076 O           22.7640    36.2150    10.5800 O             1 RES     
    1077 O           21.7240     4.2780    11.3080 O             1 RES     
    1078 O           30.1630    19.2540     8.8420 O             1 RES     
    1079 Si          15.8320    17.6140    10.7090 Si            1 RES     
    1080 O           49.4760    39.6740     5.8810 O             1 RES     
    1081 O           17.5210    13.0590     3.3260 O             1 RES     
    1082 Si          13.2090    43.8680     5.5150 Si            1 RES     
    1083 O           36.7560    28.3420     3.2740 O             1 RES     
    1084 O            0.1930     8.2110     7.5440 O             1 RES     
    1085 O           40.9160     8.9220     9.0310 O             1 RES     
    1086 Si          35.5870    48.5000    12.5270 Si            1 RES     
    1087 OS          32.5230    30.9610    12.8910 OS            1 RES     
    1088 Si          26.3850    30.8540     4.7940 Si            1 RES     
    1089 Si          21.2500     0.8260    12.5180 Si            1 RES     
    1090 O           27.9370    28.7950     7.4510 O             1 RES     
    1091 Si          32.3110     1.7010    11.9900 Si            1 RES     
    1092 O           20.8080     3.1280     6.0350 O             1 RES     
    1093 O           40.3960    19.4270    10.0400 O             1 RES     
    1094 O            8.1620    44.6540     3.9810 O             1 RES     
    1095 O           31.2400    47.1840     7.4300 O             1 RES     
    1096 O           23.7120     2.8520    10.9510 O             1 RES     
    1097 Si          21.9530    49.8670     5.1650 Si            1 RES     
    1098 O           28.4080    32.9060    12.4150 O             1 RES     
    1099 Si           2.6000    39.6720    10.1250 Si            1 RES     
    1100 Si          14.2540    20.1500     9.5970 Si            1 RES     
    1101 Si          33.7110    11.3420    11.5940 Si            1 RES     
    1102 O            2.3200    36.0940    10.2110 O             1 RES     
    1103 Si          33.6340    36.2480     7.9020 Si            1 RES     
    1104 OS          10.7800     5.6640    12.5930 OS            1 RES     
    1105 O           24.1490    43.2310    10.0890 O             1 RES     
    1106 O           43.1390    28.5830    10.8060 O             1 RES     
    1107 O           47.2410     5.9820    11.9870 O             1 RES     
    1108 Si          13.1380    10.7930    10.3950 Si            1 RES     
    1109 O           17.1380    33.0670    11.5390 O             1 RES     
    1110 Si          26.4910    29.8150    11.3490 Si            1 RES     
    1111 O           18.5480    12.0030     5.4170 O             1 RES     
    1112 O           31.5450    35.9710     4.5650 O             1 RES     
    1113 Si           0.7740    47.0520     3.7350 Si            1 RES     
    1114 O            2.5520     7.5940     3.3250 O             1 RES     
    1115 Si          45.9920    32.1560     8.3110 Si            1 RES     
    1116 O           44.3380    46.0900     7.4270 O             1 RES     
    1117 Si          43.0130    29.5670     5.5960 Si            1 RES     
    1118 Si          43.2570     4.0900    10.1390 Si            1 RES     
    1119 Si          27.4220     3.6870    10.1520 Si            1 RES     
    1120 O           20.0630    39.6790     1.9350 O             1 RES     
    1121 O           17.8060     0.4220     4.2120 O             1 RES     
    1122 O           38.2740     6.0910    11.2360 O             1 RES     
    1123 O            4.5930    39.7580     5.1360 O             1 RES     
    1124 Si          28.9100     1.9180     6.1170 Si            1 RES     
    1125 O           11.7560     6.7500     4.0410 O             1 RES     
    1126 Si          24.7800    37.9610     5.9250 Si            1 RES     
    1127 O            9.0370     8.2650     8.6630 O             1 RES     
    1128 O           24.0770    12.4170     2.5300 O             1 RES     
    1129 O            4.5950    49.1400    14.5170 O             1 RES     
    1130 O           24.6140    21.0140    11.8510 O             1 RES     
    1131 O           22.9150    25.2500     2.6540 O             1 RES     
    1132 O           10.7970    47.4620     6.5500 O             1 RES     
    1133 Si          21.8370    41.1810     9.1520 Si            1 RES     
    1134 O            9.1480     7.9230     3.5290 O             1 RES     
    1135 Si          40.5370     9.9940    10.0790 Si            1 RES     
    1136 O            5.7350     5.3190    11.2190 O             1 RES     
    1137 O            1.9570    38.9090     4.9630 O             1 RES     
    1138 O           39.2870    40.1540    10.0700 O             1 RES     
    1139 O            3.8470    17.0590     4.3490 O             1 RES     
    1140 O           17.8950    41.6230     7.1700 O             1 RES     
    1141 Si          41.1600    32.1080     9.2800 Si            1 RES     
    1142 Si           7.5300    18.7090     4.5500 Si            1 RES     
    1143 O           39.2430    10.7900     9.7430 O             1 RES     
    1144 O           38.8950    14.7690     9.3090 O             1 RES     
    1145 Si          32.5590    37.3940    10.4550 Si            1 RES     
    1146 O           36.1270    46.5280     6.8370 O             1 RES     
    1147 O           35.6710     7.5290     3.6010 O             1 RES     
    1148 Si          41.2410     5.5420     6.0670 Si            1 RES     
    1149 O           44.3530    47.2570     5.2990 O             1 RES     
    1150 O           21.0960    11.5510    11.3260 O             1 RES     
    1151 O           36.3140    47.7270     2.8030 O             1 RES     
    1152 Si           3.2690     7.8770     4.6890 Si            1 RES     
    1153 Si          44.3260    32.8360    10.9620 Si            1 RES     
    1154 O            5.9080    44.4830     4.7470 O             1 RES     
    1155 O           37.8670    48.5510     6.9750 O             1 RES     
    1156 Si          47.7890    29.7170     7.8140 Si            1 RES     
    1157 O           10.5360    45.8010    10.8160 O             1 RES     
    1158 O           30.0420     6.9110     3.1560 O             1 RES     
    1159 O           29.3280    25.3040     5.3200 O             1 RES     
    1160 O            2.6590     4.1220     4.7300 O             1 RES     
    1161 O            3.6920    39.0040     2.9030 O             1 RES     
    1162 O           46.0630     7.6860    10.0550 O             1 RES     
    1163 Si          42.8980    39.7550    11.7930 Si            1 RES     
    1164 Si          44.6300    32.1160     5.5620 Si            1 RES     
    1165 Si           6.6730    28.6420     4.1830 Si            1 RES     
    1166 O           35.2920    12.1580     4.2350 O             1 RES     
    1167 O           23.1660    15.8090     4.5290 O             1 RES     
    1168 OS          36.2370    33.6100    13.1820 OS            1 RES     
    1169 O            7.7920    19.5000     3.2450 O             1 RES     
    1170 Si          39.0220    39.1650     3.7950 Si            1 RES     
    1171 O           38.6900    39.3440     5.2950 O             1 RES     
    1172 Si          20.5840    46.4850     9.0350 Si            1 RES     
    1173 Si          26.1220     6.8770     3.7100 Si            1 RES     
    1174 O           20.6050    27.2480    10.9330 O             1 RES     
    1175 O           42.4750    43.0040     4.0240 O             1 RES     
    1176 O           48.6060    16.6050     3.7510 O             1 RES     
    1177 OS          31.7590    28.7610    13.1040 OS            1 RES     
    1178 O           17.4440    10.2380     6.5740 O             1 RES     
    1179 O           29.8050     9.3610     3.5760 O             1 RES     
    1180 O           24.9300     2.2730     5.9240 O             1 RES     
    1181 O           28.3520    10.3970     1.7180 O             1 RES     
    1182 O           45.0480    49.2860     3.9300 O             1 RES     
    1183 O           48.9510    41.4400     9.0160 O             1 RES     
    1184 Si          23.2200    44.8880     8.7860 Si            1 RES     
    1185 O           46.5110    30.6330     8.0910 O             1 RES     
    1186 Si           2.9310    20.3950    11.4460 Si            1 RES     
    1187 O           37.0440    36.4570     7.0990 O             1 RES     
    1188 OS          23.2340    45.3400    13.3730 OS            1 RES     
    1189 Si           4.5790    17.8720    12.0130 Si            1 RES     
    1190 O           31.9420    31.6430     9.0490 O             1 RES     
    1191 Si          20.8980    21.6300     7.9010 Si            1 RES     
    1192 O           20.6810    24.5750    10.5290 O             1 RES     
    1193 Si          49.8680    39.7510    11.6200 Si            1 RES     
    1194 O           46.8890    41.2540    10.2250 O             1 RES     
    1195 Si          41.9310    29.5470    10.6970 Si            1 RES     
    1196 O            0.9740     5.9620     6.5700 O             1 RES     
    1197 O           15.6560    34.3010     8.0550 O             1 RES     
    1198 O           11.1760    49.7570    10.1540 O             1 RES     
    1199 O           16.9850    20.3870     6.9930 O             1 RES     
    1200 O           21.1540    22.3680     9.2110 O             1 RES     
    1201 Si           7.0370     4.9610    12.2210 Si            1 RES     
    1202 O            2.4470     0.3440    10.6000 O             1 RES     
    1203 Si          34.4530    45.6960    12.7250 Si            1 RES     
    1204 O           35.4760     0.9680    10.6270 O             1 RES     
    1205 O           38.3100    16.9160     6.8450 O             1 RES     
    1206 Si          49.5990    10.9130     3.3680 Si            1 RES     
    1207 O           30.3820    40.4390    11.8390 O             1 RES     
    1208 O            2.3780    48.0490     9.1800 O             1 RES     
    1209 O           11.9200    35.5030     8.8340 O             1 RES     
    1210 Si          11.6610    42.2820    11.3350 Si            1 RES     
    1211 O           16.2840     2.2140     9.1100 O             1 RES     
    1212 O           28.8800    23.1380     6.8910 O             1 RES     
    1213 Si          15.1530     8.2330     3.0780 Si            1 RES     
    1214 O           37.6080    16.6840     3.1480 O             1 RES     
    1215 O           16.5280    23.4710     4.8550 O             1 RES     
    1216 O            2.0400    19.3430    10.6480 O             1 RES     
    1217 O           26.6770    32.2300     8.4070 O             1 RES     
    1218 O           34.8490    45.1810     8.5100 O             1 RES     
    1219 O           44.2890    39.3050    11.3820 O             1 RES     
    1220 O           33.8490    20.4930    11.2560 O             1 RES     
    1221 O           22.5550    39.5800     2.1820 O             1 RES     
    1222 O           42.6690    41.1440    11.1220 O             1 RES     
    1223 O            1.5370    26.3480    11.4820 O             1 RES     
    1224 O           31.1460    46.0030     2.2060 O             1 RES     
    1225 O            6.7110    37.0250     8.4600 O             1 RES     
    1226 O           40.4520    26.0420     4.4160 O             1 RES     
    1227 Si           1.4310    29.3570     4.3530 Si            1 RES     
    1228 Si          29.4410    44.1440     6.3630 Si            1 RES     
    1229 Si          34.5620    37.2000    12.6940 Si            1 RES     
    1230 O           15.4150    17.9690     3.7480 O             1 RES     
    1231 O           48.6890    29.9460     9.1440 O             1 RES     
    1232 Si          19.7040    35.1190     4.3010 Si            1 RES     
    1233 Si           9.2350    40.2780     8.5050 Si            1 RES     
    1234 O           10.1700    22.6780     3.4770 O             1 RES     
    1235 O           28.0260    48.4980     3.9550 O             1 RES     
    1236 Si          10.2590     7.0960     4.3300 Si            1 RES     
    1237 Si          10.7680     0.3680     4.1590 Si            1 RES     
    1238 O            7.4330    33.4430    10.3300 O             1 RES     
    1239 O           37.5930    12.8270     9.0240 O             1 RES     
    1240 O           39.2760    49.7930     5.2960 O             1 RES     
    1241 Si          40.4220    22.1860     8.0240 Si            1 RES     
    1242 O           41.5440    30.2860     5.8490 O             1 RES     
    1243 Si          15.1180    23.4980     5.5180 Si            1 RES     
    1244 O           37.2250    44.6220     8.1630 O             1 RES     
    1245 Si          37.4620    29.9450     6.6480 Si            1 RES     
    1246 O           28.2940     2.3970     9.6980 O             1 RES     
    1247 Si          49.9060    16.3460     2.8790 Si            1 RES     
    1248 O            2.1370    21.5170    12.1680 O             1 RES     
    1249 O           43.6060    34.1830    10.4770 O             1 RES     
    1250 Si          40.0440    22.8680     2.7750 Si            1 RES     
    1251 Si          30.3540    49.4740    11.0060 Si            1 RES     
    1252 O           10.4660    28.0500     3.3230 O             1 RES     
    1253 O           43.5030    29.4090     4.0760 O             1 RES     
    1254 O           12.3350    34.3870    10.9070 O             1 RES     
    1255 Si          30.2830    35.4870    10.0540 Si            1 RES     
    1256 O            1.5180     7.7760    10.8100 O             1 RES     
    1257 OS          13.9350    48.6380    12.4890 OS            1 RES     
    1258 O           11.8470    15.4370     5.8870 O             1 RES     
    1259 Si          36.3330    41.9210    10.7280 Si            1 RES     
    1260 Si          35.4250    49.3560     9.7630 Si            1 RES     
    1261 O           20.1260    10.3950     6.6900 O             1 RES     
    1262 O           42.1540     3.4420    10.9540 O             1 RES     
    1263 OS          48.7590     4.2680    13.4230 OS            1 RES     
    1264 O           34.3070    45.7400    11.1810 O             1 RES     
    1265 Si          28.9580    19.7090    12.6810 Si            1 RES     
    1266 O           13.5450     2.5430     3.3690 O             1 RES     
    1267 Si          10.8420    26.5980     2.8430 Si            1 RES     
    1268 Si          20.2770    23.7320     5.6520 Si            1 RES     
    1269 Si          14.4350    38.4700     8.2500 Si            1 RES     
    1270 O           14.3810    38.4590    11.4540 O             1 RES     
    1271 Si          40.9010     7.9910    12.3730 Si            1 RES     
    1272 Si           4.0140    12.4090     2.8490 Si            1 RES     
    1273 O           46.4900     5.3760     6.6270 O             1 RES     
    1274 O           43.7220     5.6280     2.8890 O             1 RES     
    1275 O            9.7740     8.0690    12.8280 O             1 RES     
    1276 O           11.2780    22.8880     6.1010 O             1 RES     
    1277 Si          34.9060    19.1140     7.6960 Si            1 RES     
    1278 O           14.3030     7.0030     3.5270 O             1 RES     
    1279 O            7.6360     4.7540     3.4860 O             1 RES     
    1280 O            1.1770    36.5940     7.9670 O             1 RES     
    1281 Si          41.8900    36.6090     5.6030 Si            1 RES     
    1282 Si           8.3270    24.6850    10.8860 Si            1 RES     
    1283 Si          48.5580    37.0190     4.7550 Si            1 RES     
    1284 O           18.0280    24.1480     2.7820 O             1 RES     
    1285 O           38.2120    40.3700     3.1680 O             1 RES     
    1286 O           13.2290    18.9340     4.1960 O             1 RES     
    1287 O            1.5240    42.1600     5.3490 O             1 RES     
    1288 O           34.2080    41.4020     2.9950 O             1 RES     
    1289 O            9.9340    30.2440     7.3410 O             1 RES     
    1290 O            2.0630    15.5610     2.9380 O             1 RES     
    1291 Si          27.0240    28.3330     8.6310 Si            1 RES     
    1292 O           35.8430     5.7330    11.5410 O             1 RES     
    1293 O           27.5350     2.5990     5.9240 O             1 RES     
    1294 Si          43.6470     6.3850     4.3100 Si            1 RES     
    1295 O           42.4490    45.0810     5.6010 O             1 RES     
    1296 O           38.6840    34.5900     7.1850 O             1 RES     
    1297 Si          43.7680    26.7680     6.7440 Si            1 RES     
    1298 O           47.2250    26.1170     2.2900 O             1 RES     
    1299 O            4.9090    17.5310    10.4690 O             1 RES     
    1300 Si          31.4390    21.9590     5.0050 Si            1 RES     
    1301 Si          21.4930    10.7350     7.5580 Si            1 RES     
    1302 O           13.9710     6.4620     5.8890 O             1 RES     
    1303 O           33.0330    13.1450     8.0570 O             1 RES     
    1304 Si          34.9240    33.4730     4.7240 Si            1 RES     
    1305 OS          26.3210    32.7020    13.5690 OS            1 RES     
    1306 Si          31.5440    41.4570    12.4750 Si            1 RES     
    1307 O           29.3740    43.0310     2.4190 O             1 RES     
    1308 O           25.4890    13.7300    12.0520 O             1 RES     
    1309 Si          41.1940    25.4280     5.6740 Si            1 RES     
    1310 Si          25.0190    33.6200     4.5810 Si            1 RES     
    1311 O           25.8520    37.3180     4.9610 O             1 RES     
    1312 O           26.2680    22.5560     2.5550 O             1 RES     
    1313 O           33.7020     3.5210     8.8710 O             1 RES     
    1314 Si          49.5320    36.2110     7.5480 Si            1 RES     
    1315 O            7.9020    12.8950     5.8120 O             1 RES     
    1316 Si          32.6620    21.5750    11.0900 Si            1 RES     
    1317 Si          41.8410    37.7970     9.8630 Si            1 RES     
    1318 O           24.8970    38.6820     9.4090 O             1 RES     
    1319 O           19.4320    30.9940     8.6450 O             1 RES     
    1320 O           23.0340     6.4600    10.7360 O             1 RES     
    1321 Si           6.1230    21.0220     6.0700 Si            1 RES     
    1322 O           26.2580     7.8970     4.8800 O             1 RES     
    1323 O           24.7020    27.8820     4.0000 O             1 RES     
    1324 O            6.7870    43.4910    11.0880 O             1 RES     
    1325 O            4.7200    26.2960     6.7230 O             1 RES     
    1326 O           37.7030    28.5370     7.3720 O             1 RES     
    1327 O           34.9560    33.9470    11.0150 O             1 RES     
    1328 O           14.4000    21.2030    10.7780 O             1 RES     
    1329 O           17.2170    24.9120    13.6390 O             1 RES     
    1330 O            4.4340    46.6510     3.6400 O             1 RES     
    1331 O           30.7400    41.4030     3.7310 O             1 RES     
    1332 O            4.3840    13.3880    11.0640 O             1 RES     
    1333 OS          22.1030    11.6210    13.7130 OS            1 RES     
    1334 Si          31.4340    47.1230     9.0250 Si            1 RES     
    1335 OS          36.8030    42.6740    12.0850 OS            1 RES     
    1336 Si          22.1270    35.1590     9.6950 Si            1 RES     
    1337 Si           4.3300    41.3140     8.1820 Si            1 RES     
    1338 O           40.7490    28.5730    10.2950 O             1 RES     
    1339 O           32.6930    40.5850     4.9870 O             1 RES     
    1340 O           31.9860     3.9110     4.1460 O             1 RES     
    1341 O           45.5510     9.8530     8.1410 O             1 RES     
    1342 Si          30.2600    26.5190     5.2240 Si            1 RES     
    1343 Si          30.8330    16.8930    12.4020 Si            1 RES     
    1344 O           33.2690     3.5440     1.8200 O             1 RES     
    1345 Si          33.1600    28.3150     9.5480 Si            1 RES     
    1346 OS          44.0770    47.9320    12.2840 OS            1 RES     
    1347 O           47.5480    38.0060     5.6180 O             1 RES     
    1348 Si          37.6450    27.2860     8.3550 Si            1 RES     
    1349 OS          27.5640    24.5850    13.4620 OS            1 RES     
    1350 O            7.1940    24.1080     3.5390 O             1 RES     
    1351 Si          16.4750     0.4530     5.0370 Si            1 RES     
    1352 OS          19.0150    33.9640    12.9490 OS            1 RES     
    1353 Si          13.7360    46.8480     4.7960 Si            1 RES     
    1354 O           45.7160     3.1720     7.7260 O             1 RES     
    1355 O           47.2460    43.8840     6.4930 O             1 RES     
    1356 O           33.8920     7.0090    12.1530 O             1 RES     
    1357 Si          39.0750     5.0900     3.8950 Si            1 RES     
    1358 O            7.5480    21.7370     2.2120 O             1 RES     
    1359 O           38.7150    11.9880     2.8450 O             1 RES     
    1360 O           17.3960    45.5620     7.7220 O             1 RES     
    1361 Si          25.4570     0.0150     8.9280 Si            1 RES     
    1362 O           26.8410    31.3830    11.3970 O             1 RES     
    1363 Si           6.6870    28.7520     8.6050 Si            1 RES     
    1364 O           22.9350     8.4130     3.4420 O             1 RES     
    1365 O           39.6580    23.4910     8.2180 O             1 RES     
    1366 O           40.5220    13.4140     7.5850 O             1 RES     
    1367 O           12.5910    40.7200     5.2870 O             1 RES     
    1368 OS          29.9960    21.1650    13.4540 OS            1 RES     
    1369 Si          41.0860    12.8460     6.2010 Si            1 RES     
    1370 Si          16.5360    42.3980     6.8450 Si            1 RES     
    1371 O            5.2850    29.5070     8.5800 O             1 RES     
    1372 Si          45.8050    26.2980     2.8180 Si            1 RES     
    1373 O           13.0470    46.5060     7.9250 O             1 RES     
    1374 O            0.7180    49.8240     8.9760 O             1 RES     
    1375 Si          11.1980    35.2150    10.2120 Si            1 RES     
    1376 O           16.1250    27.2630     7.1250 O             1 RES     
    1377 O           42.0090     8.9310     6.7160 O             1 RES     
    1378 O           29.4600     7.4260     7.0500 O             1 RES     
    1379 Si          24.4940    16.1220     5.1530 Si            1 RES     
    1380 O           14.2950    24.3120     4.4240 O             1 RES     
    1381 O           29.1570    32.0700     6.3030 O             1 RES     
    1382 O           16.2070    42.0650     2.8460 O             1 RES     
    1383 Si           9.1930     2.1070     6.1930 Si            1 RES     
    1384 O           22.3780    10.9030     3.1270 O             1 RES     
    1385 O           29.5450    27.8690     5.5900 O             1 RES     
    1386 Si           9.7130    35.8030     6.0890 Si            1 RES     
    1387 O           16.2530    39.6080     2.5560 O             1 RES     
    1388 O           36.1380    34.2730     4.0100 O             1 RES     
    1389 O           38.8820    42.7470     2.5550 O             1 RES     
    1390 O           41.4980     4.0980     6.5750 O             1 RES     
    1391 O           44.7810    41.7280     3.7870 O             1 RES     
    1392 Si          21.5530    37.3940     5.0980 Si            1 RES     
    1393 O           15.2540    46.7190     5.0130 O             1 RES     
    1394 Si          48.3050     8.8110     5.0710 Si            1 RES     
    1395 Si          19.3380    36.4260     9.9850 Si            1 RES     
    1396 O           47.7060     8.7760     8.5610 O             1 RES     
    1397 O           16.0610     6.3310     7.6540 O             1 RES     
    1398 O           48.3560    10.4680     2.3570 O             1 RES     
    1399 Si           7.5970    15.8860     3.3550 Si            1 RES     
    1400 Si          33.3320    42.4600    10.1280 Si            1 RES     
    1401 Si          46.0100    36.0040     3.3990 Si            1 RES     
    1402 O           46.9380    40.5590     4.9240 O             1 RES     
    1403 Si          14.4050    18.2450     4.9420 Si            1 RES     
    1404 O           46.1040    11.4080     5.6420 O             1 RES     
    1405 O           27.3830     8.8200     6.7370 O             1 RES     
    1406 O           31.8700    15.0560     3.2500 O             1 RES     
    1407 Si          15.9070    10.0890     6.7220 Si            1 RES     
    1408 O           10.8390    15.5770    10.8400 O             1 RES     
    1409 Si           3.8790    23.8550     9.3030 Si            1 RES     
    1410 O           10.9570    21.5610     8.4690 O             1 RES     
    1411 Si           7.0870    27.4220    11.3940 Si            1 RES     
    1412 O           42.1170    20.9600    11.0440 O             1 RES     
    1413 O           41.2090     6.6220     7.2350 O             1 RES     
    1414 Si           3.2300    16.7320     5.8630 Si            1 RES     
    1415 O           25.0490    41.8660     6.4780 O             1 RES     
    1416 Si           1.2730    44.7730    10.5840 Si            1 RES     
    1417 O            2.6120    46.4420     7.0790 O             1 RES     
    1418 O           13.6390    49.8840    10.2120 O             1 RES     
    1419 O           30.6700    34.1810     9.2810 O             1 RES     
    1420 Si          41.1270    42.6480     8.1450 Si            1 RES     
    1421 O           40.0150     6.7220    12.7820 O             1 RES     
    1422 OS          46.5220    14.8410    13.6800 OS            1 RES     
    1423 O           19.5030    37.4470    11.1780 O             1 RES     
    1424 O           40.1420    18.5980     7.4890 O             1 RES     
    1425 O            6.4810    45.2430    12.8770 O             1 RES     
    1426 O            3.6000    44.9390     4.7370 O             1 RES     
    1427 O           40.1310    32.9500    10.1810 O             1 RES     
    1428 Si          26.6890    16.7210     3.0580 Si            1 RES     
    1429 O           23.2980    16.4810    11.5780 O             1 RES     
    1430 O            7.4210    33.3580     4.5400 O             1 RES     
    1431 O           47.3600    32.4420     2.6270 O             1 RES     
    1432 O           38.3920    45.2230     3.4960 O             1 RES     
    1433 O            2.3880    18.0540     6.4230 O             1 RES     
    1434 O           33.4470    13.1420     3.1830 O             1 RES     
    1435 O           24.0410    23.1650    13.5520 O             1 RES     
    1436 O           36.7380    34.8560     9.1230 O             1 RES     
    1437 O           43.6660    35.3340     8.4330 O             1 RES     
    1438 O           39.8860     2.2040    10.2160 O             1 RES     
    1439 OS          49.6020    12.7850    13.2680 OS            1 RES     
    1440 O           33.9400    24.2910     2.7330 O             1 RES     
    1441 O           11.1720    18.9820     5.3790 O             1 RES     
    1442 O           14.0480     9.3350     3.0620 O             1 RES     
    1443 O           42.7380    34.8950     2.7400 O             1 RES     
    1444 O           34.2480    35.0790     8.7640 O             1 RES     
    1445 O           14.3800    26.3200    10.8220 O             1 RES     
    1446 Si           5.3480    49.4170    12.7330 Si            1 RES     
    1447 OS          34.2900     4.8140    13.7120 OS            1 RES     
    1448 O           41.5300    11.3990     6.3670 O             1 RES     
    1449 O           46.0850    35.4200     1.9540 O             1 RES     
    1450 Si          11.4050    22.6560     4.4670 Si            1 RES     
    1451 Si           5.4440    46.3220    12.6150 Si            1 RES     
    1452 O           47.9650     3.8760     8.0230 O             1 RES     
    1453 O           22.6100    24.2770     9.1200 O             1 RES     
    1454 O            8.7410     3.2920     5.2770 O             1 RES     
    1455 O           43.1120    13.3500    10.8740 O             1 RES     
    1456 O           40.3440    48.4660     7.4730 O             1 RES     
    1457 OS           3.4810     4.3130    11.9250 OS            1 RES     
    1458 OS          15.4450    37.0720    13.3770 OS            1 RES     
    1459 O           30.5520    32.6320    11.0970 O             1 RES     
    1460 O           14.9040    13.0700     7.7000 O             1 RES     
    1461 Si          43.4640    34.5120     4.1050 Si            1 RES     
    1462 O           37.2750    41.3190     6.3480 O             1 RES     
    1463 O           16.5790     8.1120     3.7590 O             1 RES     
    1464 O           44.9030    17.5790     9.8250 O             1 RES     
    1465 O           42.4170    23.6620    11.1840 O             1 RES     
    1466 Si          11.8210    19.6120     4.0960 Si            1 RES     
    1467 O            4.2290     4.2180     9.5200 O             1 RES     
    1468 O           11.9240     3.5670     7.9060 O             1 RES     
    1469 Si          23.2640    28.3340     4.5650 Si            1 RES     
    1470 Si          10.6550    15.6260     6.9070 Si            1 RES     
    1471 Si          16.6240    47.4700     4.8540 Si            1 RES     
    1472 O           42.4230    43.5150    11.6360 O             1 RES     
    1473 O           44.6300    13.0840     4.7050 O             1 RES     
    1474 O           24.8870    23.7760     8.7800 O             1 RES     
    1475 Si          44.1340    14.4970    10.5390 Si            1 RES     
    1476 O            1.7890    11.3740     9.7400 O             1 RES     
    1477 Si          36.3550    48.1240     7.1680 Si            1 RES     
    1478 O           10.2310    49.0210     4.5630 O             1 RES     
    1479 O           28.3610    24.1750     9.0730 O             1 RES     
    1480 O           20.6590    43.6390     4.2780 O             1 RES     
    1481 Si          19.3750    41.1540     7.3020 Si            1 RES     
    1482 O           30.9560    11.5940     8.6360 O             1 RES     
    1483 OS          18.8340     9.1030    13.2000 OS            1 RES     
    1484 OS          18.5960    17.9340    13.0090 OS            1 RES     
    1485 O           46.4730     1.5150     3.5410 O             1 RES     
    1486 O           12.2390    25.8070     3.0760 O             1 RES     
    1487 O            7.1170    49.6020     8.2970 O             1 RES     
    1488 O            7.2630    40.2660     5.4760 O             1 RES     
    1489 Si           5.9150    39.6130     6.0160 Si            1 RES     
    1490 O            3.6420    48.2090     1.7190 O             1 RES     
    1491 Si           9.3260    30.2780     8.7720 Si            1 RES     
    1492 O           21.8550    12.2470     7.6560 O             1 RES     
    1493 Si          32.0220    45.5090     3.4310 Si            1 RES     
    1494 Si          26.3280    36.2830     3.8650 Si            1 RES     
    1495 Si          29.2960    49.2110     4.6370 Si            1 RES     
    1496 Si           9.8470    49.8200    11.0250 Si            1 RES     
    1497 O           23.2350    37.5940     5.5630 O             1 RES     
    1498 O            4.4610     4.4630     6.6550 O             1 RES     
    1499 O           37.6840     4.5540     4.2990 O             1 RES     
    1500 O            8.1540    43.7040     6.2390 O             1 RES     
    1501 O           16.5850     3.8740     7.1990 O             1 RES     
    1502 Si          43.4070    14.0150     4.5790 Si            1 RES     
    1503 O           29.2980    38.8270     7.6790 O             1 RES     
    1504 O           29.3870    21.7350     9.2020 O             1 RES     
    1505 Si          19.1950    49.8120     3.6240 Si            1 RES     
    1506 O           38.6720    38.0910    11.0390 O             1 RES     
    1507 Si          37.7770    35.5230     8.0530 Si            1 RES     
    1508 O            0.8420    23.7000    11.6950 O             1 RES     
    1509 Si          45.3090    46.5390     8.6930 Si            1 RES     
    1510 O           40.1670    32.8790     5.9980 O             1 RES     
    1511 O           49.4920    12.2080     4.3130 O             1 RES     
    1512 Si          43.2470    18.1450     6.8110 Si            1 RES     
    1513 O            1.2610    45.9670     4.7330 O             1 RES     
    1514 O           20.5560     6.5140    11.2540 O             1 RES     
    1515 Si          46.4700    21.9070     5.5860 Si            1 RES     
    1516 O           33.7270     4.7470    11.2180 O             1 RES     
    1517 O           48.7680    39.6940    10.5490 O             1 RES     
    1518 Si           3.4020     1.0840     6.7640 Si            1 RES     
    1519 O           21.3330     1.8710    11.3530 O             1 RES     
    1520 O           35.5060    11.1090     6.4490 O             1 RES     
    1521 O           26.7580     4.1720     8.6430 O             1 RES     
    1522 O           44.5140    28.1680    12.7980 O             1 RES     
    1523 O           37.1250     4.6340     6.7400 O             1 RES     
    1524 Si          42.0090     8.7670     3.2600 Si            1 RES     
    1525 Si          46.1000    12.5440     4.5270 Si            1 RES     
    1526 OS          49.5030    40.8540    12.6370 OS            1 RES     
    1527 O           11.7300    11.3630    10.8470 O             1 RES     
    1528 Si          10.5060     3.9990     8.3070 Si            1 RES     
    1529 O           26.4340    42.8610    11.3620 O             1 RES     
    1530 OS          10.2690    20.2770    12.7150 OS            1 RES     
    1531 O            4.0880     6.5780     5.0410 O             1 RES     
    1532 Si           4.7960    45.1350     3.8250 Si            1 RES     
    1533 Si          17.2500    36.7620     5.3500 Si            1 RES     
    1534 O           22.6580    35.0170     8.1920 O             1 RES     
    1535 O            4.7760    11.3850     3.7570 O             1 RES     
    1536 Si           2.1730    30.1660    10.6390 Si            1 RES     
    1537 OS          29.6660     9.5910    12.2180 OS            1 RES     
    1538 O            3.1690    11.5260     1.8630 O             1 RES     
    1539 Si           1.5830    19.4170     6.7290 Si            1 RES     
    1540 Si           4.1910    30.4610     4.9740 Si            1 RES     
    1541 O           18.7420    19.2920     3.6040 O             1 RES     
    1542 OS          29.6860    44.8840    11.6080 OS            1 RES     
    1543 Si          21.1900    42.2330     4.8640 Si            1 RES     
    1544 O           30.7800    20.5740     4.9990 O             1 RES     
    1545 O           19.1700    19.3410     6.1340 O             1 RES     
    1546 Si          21.9210     5.8130    11.6850 Si            1 RES     
    1547 O           30.8090    16.9810     1.4340 O             1 RES     
    1548 O           19.2280    34.6030     2.8800 O             1 RES     
    1549 Si           4.1090     5.0000     5.1770 Si            1 RES     
    1550 O            6.3600    18.8940     8.8740 O             1 RES     
    1551 O            6.2940     0.6990     3.4020 O             1 RES     
    1552 O           15.1280     3.2530    11.2180 O             1 RES     
    1553 Si          24.5940    16.9940    10.8350 Si            1 RES     
    1554 Si          12.2190    47.6710     7.2280 Si            1 RES     
    1555 O           37.6340    43.1750     4.6860 O             1 RES     
    1556 OS          40.8040     9.0420    13.7160 OS            1 RES     
    1557 Si          27.3070    45.2360     8.2250 Si            1 RES     
    1558 O           33.9980    22.9060     7.6760 O             1 RES     
    1559 O           45.1190    37.2770     3.0810 O             1 RES     
    1560 O            6.8140    47.4990     9.5180 O             1 RES     
    1561 O           14.2680    43.1000     4.5660 O             1 RES     
    1562 O           41.9410    38.7310    11.1050 O             1 RES     
    1563 O            5.3760    40.2880     7.4140 O             1 RES     
    1564 O           40.1690    43.8500     4.6990 O             1 RES     
    1565 O           27.7100    40.7150     6.5120 O             1 RES     
    1566 O           40.9140    41.0570     8.2180 O             1 RES     
    1567 O           30.0460    40.2740     5.7160 O             1 RES     
    1568 O           17.3190    47.0070     3.5200 O             1 RES     
    1569 Si          32.9580     4.0070    10.1090 Si            1 RES     
    1570 Si          34.8320    34.0840    12.5900 Si            1 RES     
    1571 OS           7.6280    43.2180    13.5850 OS            1 RES     
    1572 Si          47.7210    26.6370     7.6180 Si            1 RES     
    1573 O           30.9160    26.5840     3.7620 O             1 RES     
    1574 O           23.9220    42.3280    12.3240 O             1 RES     
    1575 OS          25.8880    40.5100    13.6960 OS            1 RES     
    1576 O           36.9150    15.8830     8.6820 O             1 RES     
    1577 O           21.1230    47.8380     9.4230 O             1 RES     
    1578 O           44.2260     1.4090     2.5910 O             1 RES     
    1579 O           21.3940    24.2170     4.6260 O             1 RES     
    1580 OS          38.1040    25.3190    12.6240 OS            1 RES     
    1581 Si          32.5640    11.8050     8.6730 Si            1 RES     
    1582 O           33.7820    18.0900     7.4940 O             1 RES     
    1583 OS           9.2800    39.5730    11.9060 OS            1 RES     
    1584 O            1.9720     1.2120     6.1930 O             1 RES     
    1585 O           46.1200    47.9080     8.9550 O             1 RES     
    1586 O           15.0400    45.0910     8.8960 O             1 RES     
    1587 O           40.8230    25.8370     1.9520 O             1 RES     
    1588 O            5.1570    33.7200     3.2020 O             1 RES     
    1589 Si          43.0790    47.3120    11.1950 Si            1 RES     
    1590 O           21.8820    18.2290     2.1210 O             1 RES     
    1591 O            9.7870    41.1050     4.7360 O             1 RES     
    1592 O            6.1870    10.7460     5.5900 O             1 RES     
    1593 O           34.0590    49.7060     8.3830 O             1 RES     
    1594 O           46.9490    42.9200     4.2110 O             1 RES     
    1595 O           40.5380    39.4770     3.5280 O             1 RES     
    1596 O           25.0980    48.5330     8.5770 O             1 RES     
    1597 Si          33.8420    45.4100     9.7360 Si            1 RES     
    1598 O            1.0700    29.6330     2.7850 O             1 RES     
    1599 O           31.7480    46.3360     4.7500 O             1 RES     
    1600 O           46.7180    43.3970    11.7750 O             1 RES     
    1601 O           45.9950    25.4950     4.1030 O             1 RES     
    1602 Si          24.4620    20.2280     4.2260 Si            1 RES     
    1603 O            1.2180    40.0580    10.7650 O             1 RES     
    1604 O           49.7400    19.9800    10.4620 O             1 RES     
    1605 O           36.5850     7.6310    10.1330 O             1 RES     
    1606 O           32.3760    49.8430     3.1810 O             1 RES     
    1607 OS          29.5430    49.3210    12.4220 OS            1 RES     
    1608 Si          38.2170    48.4220    11.3390 Si            1 RES     
    1609 OS          27.3500    36.5040    12.2680 OS            1 RES     
    1610 O           21.5430    31.5880     9.9880 O             1 RES     
    1611 O           34.2360    27.1980    10.1070 O             1 RES     
    1612 Si          28.9930     5.7800     3.1930 Si            1 RES     
    1613 O           16.7080    12.7920     9.7260 O             1 RES     
    1614 OS           8.3120    28.2320    12.0050 OS            1 RES     
    1615 Si          17.5100    25.8340    12.3960 Si            1 RES     
    1616 O           13.1120    45.4360     5.0930 O             1 RES     
    1617 O            8.6580    38.8890     7.8230 O             1 RES     
    1618 O           25.4570    30.2240     5.8030 O             1 RES     
    1619 OS          15.4610    30.9980    12.0200 OS            1 RES     
    1620 OS          20.9830    17.0100    12.4260 OS            1 RES     
    1621 O            2.5790    23.0990     5.9300 O             1 RES     
    1622 Si          23.6140    20.2550     7.2040 Si            1 RES     
    1623 O           12.8580    28.5260    10.3000 O             1 RES     
    1624 Si          49.4750    31.2930     5.8120 Si            1 RES     
    1625 O           30.2560     7.0160    13.1400 O             1 RES     
    1626 O            1.0510    42.4950     2.7780 O             1 RES     
    1627 O           47.2880    39.8280     7.4040 O             1 RES     
    1628 Si          18.5590    46.0310     6.8330 Si            1 RES     
    1629 Si          34.5940    12.1700     2.8700 Si            1 RES     
    1630 Si          22.8780    32.3050    10.6540 Si            1 RES     
    1631 O           40.5280    15.8970     7.9670 O             1 RES     
    1632 O           49.8640    21.4210    12.6100 O             1 RES     
    1633 Si          42.2390     3.0160     7.4680 Si            1 RES     
    1634 OS           3.7080    32.8340    13.4430 OS            1 RES     
    1635 OS           2.5300    34.7780    12.6110 OS            1 RES     
    1636 O           49.6160    16.5430    11.2260 O             1 RES     
    1637 Si          27.6710    25.6370    12.2540 Si            1 RES     
    1638 O            9.4760    25.8230     3.2250 O             1 RES     
    1639 OS          16.1200    18.1080    12.2320 OS            1 RES     
    1640 Si           2.5000    36.8800     8.8330 Si            1 RES     
    1641 O           10.4580    19.5140    10.2270 O             1 RES     
    1642 O           31.5910     0.4320    11.3760 O             1 RES     
    1643 O           23.7620    20.4510     5.6460 O             1 RES     
    1644 Si          32.9600    16.8100     7.8490 Si            1 RES     
    1645 O           45.8420    12.2230     2.9200 O             1 RES     
    1646 Si          32.2490    34.8590     5.3880 Si            1 RES     
    1647 O           43.5730    19.3770     5.9410 O             1 RES     
    1648 O           41.4800    11.2340    10.4330 O             1 RES     
    1649 O           27.1300    19.9590    11.9050 O             1 RES     
    1650 O           43.1120     9.0960     2.1700 O             1 RES     
    1651 O           15.5340    25.4820     8.9350 O             1 RES     
    1652 O           28.6790    23.3450     2.1370 O             1 RES     
    1653 O           44.5210    17.3100     6.5560 O             1 RES     
    1654 O           13.6740    44.1950     7.0730 O             1 RES     
    1655 OS          14.3730    14.0060    12.1490 OS            1 RES     
    1656 O           15.2320    24.6720     6.5390 O             1 RES     
    1657 O           10.0290     5.5380     8.3100 O             1 RES     
    1658 Si          25.5300    22.6310     7.8570 Si            1 RES     
    1659 O            2.1790    47.9090     3.7720 O             1 RES     
    1660 Si          28.9950    23.7520     5.4270 Si            1 RES     
    1661 Si           3.1650    10.6790    10.1300 Si            1 RES     
    1662 O           16.2890    28.8230     5.1010 O             1 RES     
    1663 O           17.3520    32.1840     7.5460 O             1 RES     
    1664 O           34.8070    39.4040     4.0380 O             1 RES     
    1665 Si          36.5260    42.5080     5.6500 Si            1 RES     
    1666 O           19.9540     6.7290     6.2850 O             1 RES     
    1667 O            4.6190    12.9200    13.5930 O             1 RES     
    1668 O            2.3390     4.1420     7.6210 O             1 RES     
    1669 O           41.9660    30.8780     9.8350 O             1 RES     
    1670 Si          35.8660    49.2400     2.9200 Si            1 RES     
    1671 O            8.7220    18.7280     5.6150 O             1 RES     
    1672 OS          14.6250     3.0450    13.8430 OS            1 RES     
    1673 Si          35.9630    37.4350     6.4760 Si            1 RES     
    1674 Si           5.4570    15.2780     7.5350 Si            1 RES     
    1675 OS          27.9400    14.5790    12.6080 OS            1 RES     
    1676 Si          43.3240    41.8310     3.2860 Si            1 RES     
    1677 Si          43.4030    46.2690     6.1900 Si            1 RES     
    1678 Si          29.6460    11.3040     7.7860 Si            1 RES     
    1679 O           36.5260    14.3320    10.5830 O             1 RES     
    1680 O           36.0060    43.7990     6.4990 O             1 RES     
    1681 Si           8.0120    14.4310     6.0600 Si            1 RES     
    1682 O           38.2490    18.3300     8.8490 O             1 RES     
    1683 O           43.7310    19.8350     3.3930 O             1 RES     
    1684 O           27.6680    35.9060     3.0870 O             1 RES     
    1685 O            0.4900    43.5340    10.0180 O             1 RES     
    1686 O           13.6420    35.4190     6.9260 O             1 RES     
    1687 O           12.7540    11.4440     2.6230 O             1 RES     
    1688 Si          12.9910    27.1330    10.9580 Si            1 RES     
    1689 Si          23.8630    45.8620    11.9930 Si            1 RES     
    1690 O           22.2970    48.3590     5.3120 O             1 RES     
    1691 Si          25.9610     5.2320     7.8690 Si            1 RES     
    1692 O           24.2940     1.8930     2.7680 O             1 RES     
    1693 O           16.4760    37.7040     4.3180 O             1 RES     
    1694 O           38.9960     6.4630     3.1540 O             1 RES     
    1695 Si          10.7150    31.6810    12.0640 Si            1 RES     
    1696 O           34.5510    35.6090    12.8760 O             1 RES     
    1697 Si          40.2900    17.2020     6.6710 Si            1 RES     
    1698 O            0.1750    17.8730     2.5890 O             1 RES     
    1699 O           44.9450    25.3230     1.8730 O             1 RES     
    1700 O           25.4540    16.6890     4.0590 O             1 RES     
    1701 O           21.2320    41.1290     3.7910 O             1 RES     
    1702 O           47.9910    20.1320     7.5240 O             1 RES     
    1703 O           28.9260     1.4310     7.6320 O             1 RES     
    1704 Si          24.1400     6.9550     9.6920 Si            1 RES     
    1705 Si          10.0460    45.8610    12.3140 Si            1 RES     
    1706 O           19.5920    46.6460     7.8140 O             1 RES     
    1707 O           49.2820    13.9790     6.4470 O             1 RES     
    1708 Si          32.7610    30.8370     8.0090 Si            1 RES     
    1709 OS          36.0280    19.1090    11.6440 OS            1 RES     
    1710 O           25.9280    36.2850     9.9660 O             1 RES     
    1711 O           16.9410     1.5030    13.9450 O             1 RES     
    1712 Si           8.0890     9.1650     3.4690 Si            1 RES     
    1713 O            7.4840    43.0870     8.6110 O             1 RES     
    1714 O            1.1320    27.7500     4.4110 O             1 RES     
    1715 Si          41.8280    48.1740     7.9800 Si            1 RES     
    1716 Si          38.2600     9.3290     6.6120 Si            1 RES     
    1717 O           40.4440    45.0910    11.7210 O             1 RES     
    1718 O           22.1720    28.9880    12.0870 O             1 RES     
    1719 O           22.5850    42.3680     5.5940 O             1 RES     
    1720 OS           6.3640     0.9860    13.3560 OS            1 RES     
    1721 O           21.1010    18.6210     4.3820 O             1 RES     
    1722 O           28.6020    25.5380    10.9880 O             1 RES     
    1723 Si          45.1290    16.0420     5.8950 Si            1 RES     
    1724 OS          48.0560    45.4530    12.2910 OS            1 RES     
    1725 O           14.1680    24.4350     1.8690 O             1 RES     
    1726 O           13.8490    13.9900     5.4690 O             1 RES     
    1727 Si          41.6930    22.5180     5.2840 Si            1 RES     
    1728 O            7.7250    10.1780     9.7690 O             1 RES     
    1729 O           15.1780    41.4640     6.7210 O             1 RES     
    1730 O            0.5540    24.3760     6.7230 O             1 RES     
    1731 Si          38.2510    39.6490    11.1770 Si            1 RES     
    1732 O           13.2470     4.9020     3.6700 O             1 RES     
    1733 O           37.0490     8.3670     5.3170 O             1 RES     
    1734 O           18.5340     9.5700     4.7320 O             1 RES     
    1735 O           28.1010     7.5450     8.9600 O             1 RES     
    1736 O            4.4450    49.1510     3.9220 O             1 RES     
    1737 Si          34.1500     0.2340     6.9910 Si            1 RES     
    1738 O           28.9690     0.5530     5.4100 O             1 RES     
    1739 O           25.2910    45.2430    11.4690 O             1 RES     
    1740 OS          48.5810     0.0460    12.8100 OS            1 RES     
    1741 O            9.1010    41.7060     7.7430 O             1 RES     
    1742 OS          48.7460    16.5420    13.5350 OS            1 RES     
    1743 O            2.8580    31.2520    11.5010 O             1 RES     
    1744 O           28.9490    32.9340     4.0500 O             1 RES     
    1745 Si          46.1820    13.6870    12.6920 Si            1 RES     
    1746 O           22.4060    27.0210     4.5720 O             1 RES     
    1747 O           32.4200    22.4380     3.8130 O             1 RES     
    1748 Si          19.3320    37.9810     7.2560 Si            1 RES     
    1749 O           13.0730    33.9140    13.3170 O             1 RES     
    1750 OS           1.1850    49.5760    12.8470 OS            1 RES     
    1751 Si          23.2730    36.9670    11.8210 Si            1 RES     
    1752 O           25.0460    37.2640     7.3890 O             1 RES     
    1753 O           14.9480    19.2350     6.0250 O             1 RES     
    1754 O           20.8760    30.5270     2.4170 O             1 RES     
    1755 Si          47.2880    48.5670     9.7450 Si            1 RES     
    1756 Si          39.1580     5.4970    12.3780 Si            1 RES     
    1757 O            6.1050    35.7080     4.4190 O             1 RES     
    1758 Si          15.4760    20.6070     6.7620 Si            1 RES     
    1759 O           14.5900    33.3570    11.3350 O             1 RES     
    1760 Si          17.0470     0.9500    12.4370 Si            1 RES     
    1761 O            2.3170     7.2640     8.3850 O             1 RES     
    1762 O            9.0200    36.3940     7.3610 O             1 RES     
    1763 OS           0.4130    36.1710    11.9020 OS            1 RES     
    1764 O            7.3160    17.2230    10.7510 O             1 RES     
    1765 O           48.3180    49.4250     8.8890 O             1 RES     
    1766 Si          46.3050     7.2390    11.5810 Si            1 RES     
    1767 Si           0.9870    22.4530    12.7220 Si            1 RES     
    1768 O           12.6550    43.2920    11.9990 O             1 RES     
    1769 O           12.0960     9.1050     6.9030 O             1 RES     
    1770 Si          34.7290    19.2200    10.7460 Si            1 RES     
    1771 O            9.8690    36.6850     4.6570 O             1 RES     
    1772 O           41.9290    17.3280     6.3350 O             1 RES     
    1773 O            9.4350    46.6280     4.5100 O             1 RES     
    1774 O           40.4240     8.4670     2.8820 O             1 RES     
    1775 Si          26.2590     7.5200    11.9100 Si            1 RES     
    1776 O           32.8230    46.4750     9.3520 O             1 RES     
    1777 Si           6.6160    22.6860     3.5980 Si            1 RES     
    1778 O           27.6590    26.8770     8.9330 O             1 RES     
    1779 Si          15.6720    43.1520     3.8470 Si            1 RES     
    1780 O           44.8030    25.8370     6.1180 O             1 RES     
    1781 O           12.3800     0.3960     4.1410 O             1 RES     
    1782 O           39.3280    74.2340     3.1580 O             1 RES     
    1783 O            8.4580    98.5390     6.1960 O             1 RES     
    1784 O            9.9370    84.3450     9.7080 O             1 RES     
    1785 O           27.9310    70.9500     2.9650 O             1 RES     
    1786 Si          34.0510    71.9090     6.4800 Si            1 RES     
    1787 O           31.4160    67.1410     7.9150 O             1 RES     
    1788 O            7.4230    75.4710     6.7820 O             1 RES     
    1789 O           47.1120    53.1090     5.5400 O             1 RES     
    1790 O           32.8980    57.8050     9.9470 O             1 RES     
    1791 Si          38.7810    61.9610     4.5220 Si            1 RES     
    1792 O           25.3700    51.5880    12.7280 O             1 RES     
    1793 O           28.2200    57.4620    11.4690 O             1 RES     
    1794 O           41.5420    72.2820     9.1930 O             1 RES     
    1795 Si           1.2140    76.3900     3.6200 Si            1 RES     
    1796 O           32.1660    92.1050     9.0280 O             1 RES     
    1797 O           26.2930    96.3710     7.6460 O             1 RES     
    1798 O           17.5360    75.3840     7.5700 O             1 RES     
    1799 Si          37.4340    54.1390     8.1680 Si            1 RES     
    1800 O           35.4360    82.8570     8.7280 O             1 RES     
    1801 O           23.7070    74.5910     4.9950 O             1 RES     
    1802 O            9.6650    81.9680     5.7910 O             1 RES     
    1803 Si          45.4860    72.8860    10.2000 Si            1 RES     
    1804 Si          19.9930    68.2280    12.3350 Si            1 RES     
    1805 O           24.5250    80.7410     7.9630 O             1 RES     
    1806 O           32.6640    91.9310    11.4990 O             1 RES     
    1807 O            6.5590    77.3500     5.0100 O             1 RES     
    1808 Si           8.9520    83.0600     4.9870 Si            1 RES     
    1809 O           40.1130    75.9410     9.7650 O             1 RES     
    1810 O           20.6210    87.5380     6.4480 O             1 RES     
    1811 Si          24.6920    79.4830     6.9840 Si            1 RES     
    1812 Si          19.3940    65.7420     5.6330 Si            1 RES     
    1813 O           29.8760    61.7970     6.2890 O             1 RES     
    1814 O           37.9360    80.6050     3.1040 O             1 RES     
    1815 O           49.3000    93.1650     4.7740 O             1 RES     
    1816 O           49.2410    65.4300     8.7790 O             1 RES     
    1817 Si          16.0040    75.6960     7.5250 Si            1 RES     
    1818 O           10.2360    53.4110     9.6970 O             1 RES     
    1819 O           43.4210    78.2730     6.3950 O             1 RES     
    1820 O            0.1870    90.6520     3.9740 O             1 RES     
    1821 O           11.9330    86.8760     3.0060 O             1 RES     
    1822 Si          43.8870    50.3740     7.3530 Si            1 RES     
    1823 O           23.3580    62.3080    11.7210 O             1 RES     
    1824 Si          25.3870    91.5760    12.4880 Si            1 RES     
    1825 O           46.0860    71.2950     7.0170 O             1 RES     
    1826 O           21.7340    56.6160     4.3500 O             1 RES     
    1827 O           23.6280    88.4180    11.4120 O             1 RES     
    1828 O           48.4240    80.3200     6.4430 O             1 RES     
    1829 O           14.8410    73.7240    11.1040 O             1 RES     
    1830 O           13.8720    57.7270     8.0010 O             1 RES     
    1831 O           42.9320    85.6550     5.0210 O             1 RES     
    1832 Si          14.9580    72.2990    11.7660 Si            1 RES     
    1833 Si           1.3660    73.9370     5.4410 Si            1 RES     
    1834 O           17.8410    87.7820    13.0870 O             1 RES     
    1835 O            2.1070    95.4170     9.4240 O             1 RES     
    1836 Si          23.7100    78.9220    12.3920 Si            1 RES     
    1837 O           38.9530    85.4330    11.0830 O             1 RES     
    1838 O           18.9750    87.1960     8.6150 O             1 RES     
    1839 O           20.4090    99.8920     4.6600 O             1 RES     
    1840 OS          45.0010    86.9310    13.7540 OS            1 RES     
    1841 O           46.3590    88.6730     9.4100 O             1 RES     
    1842 Si          30.3630    92.9570     3.6210 Si            1 RES     
    1843 O           22.5390    50.6400     1.6870 O             1 RES     
    1844 Si          47.8950    93.8810     5.0840 Si            1 RES     
    1845 O           21.7380    95.4450     8.6830 O             1 RES     
    1846 O           29.7260    84.7920    11.3840 O             1 RES     
    1847 O           28.0750    55.0820    10.5820 O             1 RES     
    1848 Si          24.9300    97.1050     7.6980 Si            1 RES     
    1849 O           49.2420    97.3080     4.1190 O             1 RES     
    1850 O           42.6700    89.8890    13.3630 O             1 RES     
    1851 O           30.4550    57.1310    10.0400 O             1 RES     
    1852 Si          23.1700    57.2460     4.4180 Si            1 RES     
    1853 O           22.6910    90.0080     9.8390 O             1 RES     
    1854 O            9.2430    84.4260     5.6130 O             1 RES     
    1855 Si          35.9510    95.0840     7.4200 Si            1 RES     
    1856 O           13.0020    64.6690    10.0680 O             1 RES     
    1857 Si          22.3030    68.2180     3.4300 Si            1 RES     
    1858 O           38.6920    94.6600     9.9650 O             1 RES     
    1859 Si           5.3750    86.6310     5.4460 Si            1 RES     
    1860 O           31.6610    56.9240     7.6810 O             1 RES     
    1861 OS           2.1040    94.4950    11.9170 OS            1 RES     
    1862 O           33.2710    87.6820     4.3090 O             1 RES     
    1863 O            2.5230    87.1640    12.4500 O             1 RES     
    1864 O           34.7990    91.8550    10.2240 O             1 RES     
    1865 Si          20.4020    95.1770     4.5950 Si            1 RES     
    1866 Si          30.0820    67.9670     7.9450 Si            1 RES     
    1867 O           30.5780    93.3520     7.2540 O             1 RES     
    1868 O           19.3900    82.4830    10.8440 O             1 RES     
    1869 O           38.7970    97.0110    10.9690 O             1 RES     
    1870 Si          39.4990    69.3740     8.7080 Si            1 RES     
    1871 O           42.9490    88.5760     2.4350 O             1 RES     
    1872 Si           3.8240    79.5800     7.9930 Si            1 RES     
    1873 O           37.3440    58.4030     7.9400 O             1 RES     
    1874 O           15.1020    87.0500     8.0510 O             1 RES     
    1875 O            9.6790    53.5510     2.8980 O             1 RES     
    1876 O           31.5790    93.9430     3.5960 O             1 RES     
    1877 Si          35.8900    62.3490     5.6510 Si            1 RES     
    1878 O            4.2640    59.0260     4.7800 O             1 RES     
    1879 O           44.0270    65.3980     4.9560 O             1 RES     
    1880 OS          38.3090    83.0360    11.9640 OS            1 RES     
    1881 Si          32.8510    79.5180    12.2650 Si            1 RES     
    1882 O           22.9350    91.4540     7.9210 O             1 RES     
    1883 O           30.0370    99.7050     3.3810 O             1 RES     
    1884 Si           3.5000    88.7530     4.4320 Si            1 RES     
    1885 O           38.2010    60.6540     7.5920 O             1 RES     
    1886 O            9.7210    94.1600     8.4230 O             1 RES     
    1887 O           38.4650    75.9060     8.1340 O             1 RES     
    1888 O            6.0940    66.2190     8.6880 O             1 RES     
    1889 Si          15.1630    85.7140     7.3010 Si            1 RES     
    1890 OS           7.6490    66.0520    13.1470 OS            1 RES     
    1891 O           31.1850    57.8320     5.0870 O             1 RES     
    1892 O           24.1550    96.1000     8.5750 O             1 RES     
    1893 O            8.2810    56.0230    12.1260 O             1 RES     
    1894 O           45.3310    74.4320     9.8760 O             1 RES     
    1895 Si          25.6960    87.4590     8.8510 Si            1 RES     
    1896 OS           2.2070    63.1450    12.8520 OS            1 RES     
    1897 Si          15.9380    82.7240     8.1010 Si            1 RES     
    1898 Si           7.5200    94.1720    12.3700 Si            1 RES     
    1899 O           30.4440    73.0700     5.2210 O             1 RES     
    1900 O           46.7050    97.7370     5.0130 O             1 RES     
    1901 O           11.4490    57.4630     8.7760 O             1 RES     
    1902 Si          23.7950    51.6760     6.8390 Si            1 RES     
    1903 O            2.8600    80.0720     9.2260 O             1 RES     
    1904 Si          21.9800    80.9280     3.3940 Si            1 RES     
    1905 O           24.3500    68.9630     7.6670 O             1 RES     
    1906 Si          22.5320    75.0840     4.1390 Si            1 RES     
    1907 O            3.2820    59.1310    10.0050 O             1 RES     
    1908 Si          18.5560    83.6670    11.4620 Si            1 RES     
    1909 O           39.1110    71.6780     2.3750 O             1 RES     
    1910 O           17.6690    79.6720     7.1160 O             1 RES     
    1911 Si          20.2150    56.4960     4.7090 Si            1 RES     
    1912 Si          26.0590    90.8180     5.8490 Si            1 RES     
    1913 O           28.9650    88.7850    10.2090 O             1 RES     
    1914 O           40.1500    66.6990     2.3940 O             1 RES     
    1915 Si          49.4280    50.5340     8.6050 Si            1 RES     
    1916 O            4.7720    71.7590     6.4550 O             1 RES     
    1917 O           24.2530    83.2980     7.8670 O             1 RES     
    1918 Si          10.7020    80.7490     6.1000 Si            1 RES     
    1919 O           42.6700    55.6730     5.2900 O             1 RES     
    1920 Si          14.2700    99.9640    11.6860 Si            1 RES     
    1921 O            6.6100    71.1300    10.0300 O             1 RES     
    1922 O           49.4510    61.8250    10.8060 O             1 RES     
    1923 O           41.1260    63.8420     9.8870 O             1 RES     
    1924 O           45.6810    65.0260     7.0230 O             1 RES     
    1925 O           46.7460    76.3010     8.8480 O             1 RES     
    1926 O           27.8520    80.1570     5.1630 O             1 RES     
    1927 O           14.0080    66.7380     5.3380 O             1 RES     
    1928 O           27.0560    91.8310     1.9940 O             1 RES     
    1929 Si          13.3490    74.6240     3.2190 Si            1 RES     
    1930 O           25.9020    84.8710     4.4290 O             1 RES     
    1931 O           20.1230    54.8830     4.5910 O             1 RES     
    1932 O           34.1470    65.1210    11.3000 O             1 RES     
    1933 Si           1.3730    72.1510     2.9220 Si            1 RES     
    1934 O           49.7900    75.9860     3.1710 O             1 RES     
    1935 O           32.2150    77.3290     8.7490 O             1 RES     
    1936 O           42.4190    63.5680     5.7240 O             1 RES     
    1937 O           37.2140    55.2770     9.2580 O             1 RES     
    1938 O           40.9980    73.4960     1.5910 O             1 RES     
    1939 OS           0.6460    77.9250    13.3760 OS            1 RES     
    1940 Si           0.8110    69.1590     9.6580 Si            1 RES     
    1941 O           30.5330    68.1760     4.0030 O             1 RES     
    1942 O           41.9850    83.4010     8.8860 O             1 RES     
    1943 O            6.9590    88.8170    12.1150 O             1 RES     
    1944 O           23.5630    78.8290     6.0310 O             1 RES     
    1945 Si          36.8960    56.1620    10.4730 Si            1 RES     
    1946 OS          30.9060    92.8970    12.8760 OS            1 RES     
    1947 O           22.3450    83.7720    10.4280 O             1 RES     
    1948 Si          38.7720    99.4470     3.8340 Si            1 RES     
    1949 Si          20.6320    78.6790    11.6590 Si            1 RES     
    1950 O           29.1060    59.9070     8.0490 O             1 RES     
    1951 O            4.3300    66.1090     6.8260 O             1 RES     
    1952 Si          46.1970    58.4660     8.6420 Si            1 RES     
    1953 O           31.4770    70.9200    10.3250 O             1 RES     
    1954 O           23.6740    63.7090     7.1970 O             1 RES     
    1955 O           25.7850    66.0530    11.2930 O             1 RES     
    1956 Si          25.0720    52.0650    11.2810 Si            1 RES     
    1957 O            6.5130    62.3630    10.0980 O             1 RES     
    1958 O           31.2430    76.1310     6.4910 O             1 RES     
    1959 O           29.5560    93.4330     4.9100 O             1 RES     
    1960 O            5.5290    79.6980     4.5780 O             1 RES     
    1961 Si          12.1290    79.9390     9.9840 Si            1 RES     
    1962 Si          42.9810    92.5610    10.5600 Si            1 RES     
    1963 O            0.0220    64.5270     4.1100 O             1 RES     
    1964 O           27.5270    56.1070     3.8020 O             1 RES     
    1965 O           12.7250    53.7090    12.4850 O             1 RES     
    1966 Si           9.4180    52.8310    10.8570 Si            1 RES     
    1967 O           31.6600    86.1520    10.5500 O             1 RES     
    1968 Si          18.5290    81.0570     7.4200 Si            1 RES     
    1969 OS          22.9530    95.1110    10.9490 OS            1 RES     
    1970 O           47.5310    78.1790     7.5710 O             1 RES     
    1971 O           22.0970    52.9560     3.5790 O             1 RES     
    1972 O           23.9750    97.1680     6.4300 O             1 RES     
    1973 Si          35.6350    57.7970     5.0950 Si            1 RES     
    1974 Si          15.2560    75.1420    10.4270 Si            1 RES     
    1975 O           18.6580    85.0890    10.6360 O             1 RES     
    1976 OS          20.2660    87.5690    13.8000 OS            1 RES     
    1977 O           29.7200    68.0810    12.3670 O             1 RES     
    1978 O           26.0000    69.8770     4.2940 O             1 RES     
    1979 O           41.0400    52.2550     8.1180 O             1 RES     
    1980 Si          26.5050    59.2230     5.5330 Si            1 RES     
    1981 O           36.9120    90.4130    10.7990 O             1 RES     
    1982 O           20.7340    65.2520     4.9050 O             1 RES     
    1983 O           19.4960    68.3400    10.8120 O             1 RES     
    1984 O           22.9330    52.9620     7.0930 O             1 RES     
    1985 O           25.5590    73.5770     6.4960 O             1 RES     
    1986 O           34.9440    98.6380    11.0810 O             1 RES     
    1987 Si          25.5740    69.7440    11.9030 Si            1 RES     
    1988 O            0.6750    80.5180    10.5840 O             1 RES     
    1989 Si          19.9420    56.1710     7.7720 Si            1 RES     
    1990 Si          23.1990    62.0790     3.8050 Si            1 RES     
    1991 O           30.8380    55.4450     5.9680 O             1 RES     
    1992 O           45.9100    57.5290     7.3860 O             1 RES     
    1993 Si           3.6840    62.8230    12.3480 Si            1 RES     
    1994 OS          18.8100    94.6700    12.2700 OS            1 RES     
    1995 Si          38.0060    61.3040     9.0220 Si            1 RES     
    1996 O           20.9740    86.1480     4.3800 O             1 RES     
    1997 O           33.5230    95.4890     2.9160 O             1 RES     
    1998 Si           9.2410    95.5480     3.3790 Si            1 RES     
    1999 Si          34.3650    55.5360    12.3320 Si            1 RES     
    2000 Si          39.6160    75.8090     3.1450 Si            1 RES     
    2001 O           28.8550    66.9830     8.2740 O             1 RES     
    2002 Si          10.8730    75.4460     9.4090 Si            1 RES     
    2003 OS           2.9380    77.3670    13.5110 OS            1 RES     
    2004 OS          33.3940    95.2420    13.7960 OS            1 RES     
    2005 Si          45.8650    81.8970     2.7980 Si            1 RES     
    2006 O           43.3990    55.4610    10.9030 O             1 RES     
    2007 O           45.3100    82.5620     6.9560 O             1 RES     
    2008 O           21.8170    95.9040     5.1190 O             1 RES     
    2009 O           42.0710    97.7170     9.4400 O             1 RES     
    2010 Si          35.4420    82.0520     7.3890 Si            1 RES     
    2011 O           45.1310    64.1860     9.3770 O             1 RES     
    2012 O           13.7230    51.3210    12.2550 O             1 RES     
    2013 O           28.4180    62.2310     8.3410 O             1 RES     
    2014 O           48.1150    53.6560     3.2300 O             1 RES     
    2015 O           24.3630    71.2010     2.9820 O             1 RES     
    2016 Si           0.4750    89.2730     4.6870 Si            1 RES     
    2017 Si          49.8290    67.2240    12.6160 Si            1 RES     
    2018 O           11.8830    92.9360     5.5030 O             1 RES     
    2019 O           48.1000    68.5900     5.2710 O             1 RES     
    2020 Si          13.5760    95.1310     8.3190 Si            1 RES     
    2021 O            7.9420    79.6150     8.5510 O             1 RES     
    2022 O           19.4490    66.2870     9.2650 O             1 RES     
    2023 O           21.8720    83.0660     6.7000 O             1 RES     
    2024 Si          28.1680    82.5160     7.8900 Si            1 RES     
    2025 O            9.3260    64.7530     6.8240 O             1 RES     
    2026 Si          33.4080    73.7200     8.8770 Si            1 RES     
    2027 O           22.0920    70.6210     7.5910 O             1 RES     
    2028 O            3.4620    56.4040    10.5250 O             1 RES     
    2029 Si          37.3120    74.5400    11.4470 Si            1 RES     
    2030 O           26.2140    75.8960    11.8030 O             1 RES     
    2031 Si          39.0690    67.2800     3.3630 Si            1 RES     
    2032 O           38.6180    84.2620     4.5350 O             1 RES     
    2033 Si          37.6040    84.2130     3.3530 Si            1 RES     
    2034 O            0.7970    92.5890     7.7990 O             1 RES     
    2035 O           22.2110    63.2820     3.8790 O             1 RES     
    2036 O            3.3010    92.0190     7.2270 O             1 RES     
    2037 O           42.6960    90.5310     3.8590 O             1 RES     
    2038 Si          17.0000    55.1450     8.0970 Si            1 RES     
    2039 O           47.1890    75.8760     6.4000 O             1 RES     
    2040 O           42.6210    68.3830    10.7470 O             1 RES     
    2041 O            8.0760    65.1190     4.6190 O             1 RES     
    2042 Si          45.0950    88.4250    10.3500 Si            1 RES     
    2043 O           45.8150    50.0320     1.4580 O             1 RES     
    2044 Si          12.9980    81.8610     7.7030 Si            1 RES     
    2045 O           18.4430    68.7220     8.4660 O             1 RES     
    2046 O           24.4370    66.7460     6.5860 O             1 RES     
    2047 Si          14.9540    62.9100     6.0530 Si            1 RES     
    2048 O           14.9650    68.7910     9.9840 O             1 RES     
    2049 Si          24.7280    76.1950    11.4530 Si            1 RES     
    2050 O           47.3630    82.9210     8.3330 O             1 RES     
    2051 O           32.0960    66.7640    11.4900 O             1 RES     
    2052 O           34.8860    97.1780    12.9650 O             1 RES     
    2053 O           12.7500    65.3170     3.5650 O             1 RES     
    2054 O           35.1600    91.7720     5.1760 O             1 RES     
    2055 O           46.3020    93.3040     9.1230 O             1 RES     
    2056 O           21.4630    64.5980     8.6160 O             1 RES     
    2057 O           38.8250    97.9060     3.5560 O             1 RES     
    2058 O           33.4650    51.9990     3.7860 O             1 RES     
    2059 O           27.3030    64.6550     8.4230 O             1 RES     
    2060 O           24.3010    77.5890    11.8080 O             1 RES     
    2061 O           18.4060    97.3430    11.6440 O             1 RES     
    2062 O            6.4100    69.6400     5.3440 O             1 RES     
    2063 OS           9.7490    97.1610    13.2240 OS            1 RES     
    2064 Si          48.5780    69.7920     6.0330 Si            1 RES     
    2065 Si          13.2120    56.2720     4.4060 Si            1 RES     
    2066 Si          38.8670    93.7710     3.9090 Si            1 RES     
    2067 O           16.1730    85.9180     6.1790 O             1 RES     
    2068 Si          46.9800    52.9410     3.9820 Si            1 RES     
    2069 O           16.4210    98.9450     5.2640 O             1 RES     
    2070 OS          49.7980    88.4060    12.4830 OS            1 RES     
    2071 Si          28.4320    50.9860     9.0180 Si            1 RES     
    2072 O            3.7910    69.2340    12.2220 O             1 RES     
    2073 Si          37.3810    64.3720     9.2660 Si            1 RES     
    2074 O           39.6090    67.1140     4.7570 O             1 RES     
    2075 O           18.9850    73.2030     4.9360 O             1 RES     
    2076 O           33.3830    79.5890     8.6530 O             1 RES     
    2077 Si           6.5040    84.3540     3.6440 Si            1 RES     
    2078 Si          21.8010    73.4750    10.1490 Si            1 RES     
    2079 O           32.1880    52.9370    11.0530 O             1 RES     
    2080 O           48.2850    87.1040     8.2830 O             1 RES     
    2081 O           41.0400    52.3510    12.7430 O             1 RES     
    2082 O           21.6560    65.2860     2.4880 O             1 RES     
    2083 Si          23.6110    92.4730     6.8000 Si            1 RES     
    2084 Si          39.1900    74.7630     8.9630 Si            1 RES     
    2085 OS          23.5860    97.4960    12.0860 OS            1 RES     
    2086 OS          35.6550    94.6830    12.9390 OS            1 RES     
    2087 O           38.8090    60.5150     5.0240 O             1 RES     
    2088 Si           7.5450    67.4300    12.2700 Si            1 RES     
    2089 O           11.9280    60.0130     4.3980 O             1 RES     
    2090 O           47.4460    62.9720    12.0550 O             1 RES     
    2091 O           16.4350    51.3450     6.4240 O             1 RES     
    2092 Si          10.3130    61.8920    10.4020 Si            1 RES     
    2093 OS          11.2070    82.3640    13.4470 OS            1 RES     
    2094 O           23.7810    96.8420     3.9060 O             1 RES     
    2095 OS          32.3080    90.5490    13.5250 OS            1 RES     
    2096 Si          14.6130    89.8490    10.8620 Si            1 RES     
    2097 Si           9.0190    54.2510     4.0900 Si            1 RES     
    2098 O           25.1120    64.6520     5.4390 O             1 RES     
    2099 Si          44.0140    86.7140     7.7550 Si            1 RES     
    2100 OS          48.1550    60.7840    12.7930 OS            1 RES     
    2101 OS          14.5800    60.1050    13.9600 OS            1 RES     
    2102 OS          30.2540    65.4520    12.2440 OS            1 RES     
    2103 O           15.1430    89.4530     9.4470 O             1 RES     
    2104 Si          26.1430    53.1790     5.5820 Si            1 RES     
    2105 O            0.4530    53.1480     6.2690 O             1 RES     
    2106 O           46.8350    99.3910    10.9860 O             1 RES     
    2107 O            4.0590    86.5990     8.4880 O             1 RES     
    2108 Si          21.9700    64.8470     4.0010 Si            1 RES     
    2109 Si           5.4830    71.8870    10.9520 Si            1 RES     
    2110 O           12.9610    66.0130    12.0790 O             1 RES     
    2111 Si          18.5110    95.7810    11.1700 Si            1 RES     
    2112 OS          26.1120    56.5300    13.1560 OS            1 RES     
    2113 O           28.9550    61.6580     3.8450 O             1 RES     
    2114 O           16.8570    54.4800     9.5660 O             1 RES     
    2115 O           12.2070    81.3180     6.4880 O             1 RES     
    2116 Si           3.6610    97.9890     3.2660 Si            1 RES     
    2117 O            2.3810    88.3960     9.2630 O             1 RES     
    2118 O           16.4770    93.0330     5.4360 O             1 RES     
    2119 O            8.4010    87.8400     9.9930 O             1 RES     
    2120 Si          35.2360    76.0960     9.8200 Si            1 RES     
    2121 O           41.6370    98.2940    12.0470 O             1 RES     
    2122 O           28.3920    95.5220     9.3080 O             1 RES     
    2123 Si           8.7650    59.9060     8.6400 Si            1 RES     
    2124 Si          31.1860    90.2060     4.6190 Si            1 RES     
    2125 O           33.9620    59.7730    11.3540 O             1 RES     
    2126 Si          29.9290    88.9810    11.4220 Si            1 RES     
    2127 O           46.4470    95.4640     8.5700 O             1 RES     
    2128 O            3.8460    99.6770    12.4230 O             1 RES     
    2129 O           11.9350    76.3070    10.1220 O             1 RES     
    2130 O           34.7310    87.0780     7.2970 O             1 RES     
    2131 O            9.9940    82.7270     3.7510 O             1 RES     
    2132 OS          45.7050    62.9940    13.9360 OS            1 RES     
    2133 Si          18.4620    69.7870     7.3990 Si            1 RES     
    2134 O           11.2240    85.5340     6.4810 O             1 RES     
    2135 O           43.9110    60.6470     6.2750 O             1 RES     
    2136 O           45.5200    86.9650     7.4450 O             1 RES     
    2137 O           42.3600    97.1630     6.9220 O             1 RES     
    2138 OS          21.7830    63.9840    12.3470 OS            1 RES     
    2139 Si          38.2540    93.6100     8.9210 Si            1 RES     
    2140 OS          17.5590    77.3140    12.9220 OS            1 RES     
    2141 O            3.3950    61.3600    11.7150 O             1 RES     
    2142 Si           6.1610    54.5190     2.9570 Si            1 RES     
    2143 Si          35.9990    54.7990     5.4630 Si            1 RES     
    2144 O           40.4460    58.8940    11.2490 O             1 RES     
    2145 Si          36.3780    58.7640     9.1110 Si            1 RES     
    2146 Si           1.8180    77.6390    12.3530 Si            1 RES     
    2147 OS          47.8010    87.1470    12.8070 OS            1 RES     
    2148 O           11.1920    95.1340    13.1630 O             1 RES     
    2149 O           48.1120    97.4380    10.4120 O             1 RES     
    2150 O           39.5130    70.8610     8.2070 O             1 RES     
    2151 O            7.0610    53.7190    13.2660 O             1 RES     
    2152 O           26.4280    84.1630    11.4740 O             1 RES     
    2153 Si          33.3770    53.5300     3.4640 Si            1 RES     
    2154 O           36.1180    98.2970     8.6890 O             1 RES     
    2155 O           46.7490    67.9500     3.0500 O             1 RES     
    2156 O           41.6860    92.9810     6.6740 O             1 RES     
    2157 O           37.4760    62.5040     5.3120 O             1 RES     
    2158 Si          24.7900    63.2300     6.2040 Si            1 RES     
    2159 OS          38.1530    54.6200    13.3710 OS            1 RES     
    2160 O            9.6770    82.6350    11.3050 O             1 RES     
    2161 Si          33.9690    72.8690     3.4780 Si            1 RES     
    2162 O           43.9820    87.9620     9.3120 O             1 RES     
    2163 Si          12.2740    84.9140     7.4100 Si            1 RES     
    2164 O           25.0010    68.4920    11.1670 O             1 RES     
    2165 O            2.7600    74.2130    10.4020 O             1 RES     
    2166 O           42.9580    76.1660    11.8200 O             1 RES     
    2167 O           45.1440    64.4450    11.7480 O             1 RES     
    2168 Si          40.0110    89.8830     8.6920 Si            1 RES     
    2169 OS           4.8870    80.6080    12.7110 OS            1 RES     
    2170 O           36.7400    79.8300     5.2550 O             1 RES     
    2171 Si          16.6150    94.7830     8.8650 Si            1 RES     
    2172 O           14.1100    61.8590     9.6930 O             1 RES     
    2173 O            2.0850    94.1560     6.4310 O             1 RES     
    2174 Si          39.0470    95.4520    11.2560 Si            1 RES     
    2175 Si          46.1120    92.6170    10.5030 Si            1 RES     
    2176 Si          15.9470    52.3680     7.5480 Si            1 RES     
    2177 O            9.2800    73.5000     7.5290 O             1 RES     
    2178 OS          40.7000    84.4120    12.2590 OS            1 RES     
    2179 OS          37.3970    99.2820    10.3440 OS            1 RES     
    2180 O           27.2990    59.9210     4.3170 O             1 RES     
    2181 O           47.5000    67.2100     9.6140 O             1 RES     
    2182 O           10.7770    90.0520     8.7900 O             1 RES     
    2183 Si          24.9320    74.8970     5.9010 Si            1 RES     
    2184 Si          46.2280    86.8130    12.7060 Si            1 RES     
    2185 OS          17.5710    57.1020    13.6460 OS            1 RES     
    2186 O            3.9580    81.7320     3.9260 O             1 RES     
    2187 O           30.0340    98.1820     5.4990 O             1 RES     
    2188 Si           2.3960    50.3410    12.1610 Si            1 RES     
    2189 Si           1.3740    74.8670    10.7920 Si            1 RES     
    2190 O           32.8560    64.0160     5.4360 O             1 RES     
    2191 O            5.0360    82.8140    11.2680 O             1 RES     
    2192 O            4.3950    51.0660     5.6080 O             1 RES     
    2193 Si          11.4700    64.6680     9.6650 Si            1 RES     
    2194 O           45.4260    62.4360     7.7160 O             1 RES     
    2195 Si          39.5160    83.9090    11.3150 Si            1 RES     
    2196 O           42.7260    95.9040    11.9400 O             1 RES     
    2197 OS          21.7830    55.7500    13.3060 OS            1 RES     
    2198 O            3.4140    90.7410     9.3500 O             1 RES     
    2199 O           34.3490    82.3610     3.7950 O             1 RES     
    2200 OS           4.0670    95.7170    13.0380 OS            1 RES     
    2201 O           16.5320    75.6030    11.2150 O             1 RES     
    2202 O            8.3430    90.2150     9.8420 O             1 RES     
    2203 O            4.0360    75.3720     8.7120 O             1 RES     
    2204 O           30.6800    95.8030     9.3590 O             1 RES     
    2205 O           10.0900    60.7120     6.1550 O             1 RES     
    2206 O           19.1940    67.1920     5.2050 O             1 RES     
    2207 O           37.1160    98.2080    12.3700 O             1 RES     
    2208 Si          11.3670    66.3290    12.1810 Si            1 RES     
    2209 O           35.5170    99.9290     1.5800 O             1 RES     
    2210 O            3.1960    63.4610     3.7560 O             1 RES     
    2211 O            4.0060    80.3250     6.5690 O             1 RES     
    2212 Si          39.5480    84.3190     5.9030 Si            1 RES     
    2213 Si          19.5940    68.6870     4.7920 Si            1 RES     
    2214 OS          15.5400    61.8900    12.5810 OS            1 RES     
    2215 Si           3.2760    72.0430     6.8940 Si            1 RES     
    2216 O            4.7160    94.8320     2.2930 O             1 RES     
    2217 Si          16.4430    53.1290    10.4140 Si            1 RES     
    2218 O           34.7450    70.4650     6.8190 O             1 RES     
    2219 O           42.7410    99.4860     7.9210 O             1 RES     
    2220 O            9.6600    75.8890     8.2980 O             1 RES     
    2221 Si          14.1900    90.4600     5.9330 Si            1 RES     
    2222 O            2.1890    57.9920     5.7940 O             1 RES     
    2223 OS           8.7360    73.7110    12.1360 OS            1 RES     
    2224 O            9.6740    53.0890     7.3500 O             1 RES     
    2225 Si          45.4850    52.3080     9.1260 Si            1 RES     
    2226 O           34.5530    51.7420     7.1130 O             1 RES     
    2227 Si          47.6950    96.8240     4.1620 Si            1 RES     
    2228 O            9.0940    81.8780     9.0570 O             1 RES     
    2229 O           32.8540    61.6640    10.2560 O             1 RES     
    2230 O           39.9370    62.6720     5.1830 O             1 RES     
    2231 O           42.7870    57.5880     3.9020 O             1 RES     
    2232 OS          41.5110    94.6970    13.8950 OS            1 RES     
    2233 Si           3.5110    76.4870     7.6910 Si            1 RES     
    2234 O           24.8100    90.6180     2.1530 O             1 RES     
    2235 O           28.0830    69.4000    14.1250 O             1 RES     
    2236 Si          45.3360    98.4560     5.2530 Si            1 RES     
    2237 O           15.0890    66.2570    10.7830 O             1 RES     
    2238 O            1.7470    75.2300     4.6450 O             1 RES     
    2239 O           20.2430    99.6870    11.9420 O             1 RES     
    2240 Si           1.9550    92.6290     6.7790 Si            1 RES     
    2241 Si          21.5380    53.5220     7.4470 Si            1 RES     
    2242 O           17.2980    95.0130    10.2930 O             1 RES     
    2243 O           14.1450    89.2150     6.8920 O             1 RES     
    2244 O           10.4990    69.3050     7.6740 O             1 RES     
    2245 Si          14.9070    57.2060     6.9330 Si            1 RES     
    2246 Si          28.6810    75.7310     9.3460 Si            1 RES     
    2247 O           35.3300    80.3750     2.9760 O             1 RES     
    2248 Si           8.6830    93.2050     7.6990 Si            1 RES     
    2249 O           14.0870    79.7210     3.3030 O             1 RES     
    2250 O           33.0820    72.8120    10.2330 O             1 RES     
    2251 O           47.5190    86.2220     3.8790 O             1 RES     
    2252 Si          28.5250    56.5820    10.1990 Si            1 RES     
    2253 Si          47.4500    67.4220     4.3660 Si            1 RES     
    2254 O           28.1610    65.8470     6.3670 O             1 RES     
    2255 OS           1.1650    72.8170    14.2730 OS            1 RES     
    2256 O           44.8110    50.9100     8.5730 O             1 RES     
    2257 O           18.5750    77.3960     6.6910 O             1 RES     
    2258 O           26.1090    53.3020     3.9990 O             1 RES     
    2259 Si          42.6060    84.7230     9.4340 Si            1 RES     
    2260 Si          45.3720    60.9610     7.0310 Si            1 RES     
    2261 O           22.5860    79.5690     3.9380 O             1 RES     
    2262 Si          40.2970    81.3540     6.4800 Si            1 RES     
    2263 Si           6.0960    83.9830    10.8440 Si            1 RES     
    2264 O           12.7440    80.9830     8.8940 O             1 RES     
    2265 OS          46.1210    51.2430    12.8700 OS            1 RES     
    2266 O           26.2930    80.5420     3.2220 O             1 RES     
    2267 O            7.8820    74.5560     9.3200 O             1 RES     
    2268 O           27.0360    72.2950     8.3600 O             1 RES     
    2269 O           25.2950    50.7040    10.3780 O             1 RES     
    2270 Si          24.9280    67.5040     7.8380 Si            1 RES     
    2271 O           48.6180    54.1440    10.7340 O             1 RES     
    2272 O           25.6520    78.5460     7.8160 O             1 RES     
    2273 O           19.8470    74.9840     6.4890 O             1 RES     
    2274 Si          41.6370    62.8030    10.9200 Si            1 RES     
    2275 Si          35.3520    51.3890    12.1150 Si            1 RES     
    2276 Si          46.8970    87.7350     7.7620 Si            1 RES     
    2277 O           26.2440    57.4510     2.2640 O             1 RES     
    2278 O            5.3780    85.8640     6.8210 O             1 RES     
    2279 O           45.1740    77.8150     2.8680 O             1 RES     
    2280 Si          43.8770    77.3760    11.5510 Si            1 RES     
    2281 Si          12.5270    58.5340     8.2720 Si            1 RES     
    2282 O            3.5620    78.0480     7.7900 O             1 RES     
    2283 O            5.2150    72.8920     2.7460 O             1 RES     
    2284 O           46.5290    72.0670     9.2400 O             1 RES     
    2285 Si          13.1480    65.3560     5.0550 Si            1 RES     
    2286 O           24.9450    79.7810    11.9010 O             1 RES     
    2287 O            0.0590    67.7840     9.3110 O             1 RES     
    2288 O           19.1170    63.8090     9.2550 O             1 RES     
    2289 O            4.0670    87.3420     4.9070 O             1 RES     
    2290 O           36.9140    60.2500     9.4460 O             1 RES     
    2291 O           35.5640    56.3480     5.5660 O             1 RES     
    2292 OS          29.1860    88.1350    12.6570 OS            1 RES     
    2293 Si          31.8730    87.3300     3.6020 Si            1 RES     
    2294 O           42.7740    53.8650     8.6890 O             1 RES     
    2295 O           36.2550    76.7060     8.7730 O             1 RES     
    2296 Si          14.0130    65.1700    11.1740 Si            1 RES     
    2297 OS           3.7870    66.7630    12.8830 OS            1 RES     
    2298 Si          48.5450    55.0490    12.0960 Si            1 RES     
    2299 O           40.6880    72.2130     4.0540 O             1 RES     
    2300 O           14.5790    82.1970     7.4600 O             1 RES     
    2301 O           40.8770    88.5600     8.8240 O             1 RES     
    2302 O           24.8340    93.0310     2.6420 O             1 RES     
    2303 Si          30.0510    69.2360     5.0320 Si            1 RES     
    2304 O           32.2550    58.4950     2.8570 O             1 RES     
    2305 O           45.1300    82.9420     1.8010 O             1 RES     
    2306 O           23.0200    82.1490    12.2200 O             1 RES     
    2307 Si           6.2410    93.4290     9.5200 Si            1 RES     
    2308 Si          26.1320    77.2990     4.2450 Si            1 RES     
    2309 O           39.7030    93.2250     8.3650 O             1 RES     
    2310 O            8.5980    96.3720     2.2240 O             1 RES     
    2311 Si          34.6490    53.1510     7.7220 Si            1 RES     
    2312 O           15.1550    61.3100     5.9300 O             1 RES     
    2313 Si           5.3720    60.0700     4.4590 Si            1 RES     
    2314 O           42.3490    57.4910    12.1660 O             1 RES     
    2315 O           15.4210    90.4660    12.0290 O             1 RES     
    2316 O            5.0060    54.4480     4.0530 O             1 RES     
    2317 O           19.4280    95.2850     5.8050 O             1 RES     
    2318 O           44.4440    96.5930    10.0370 O             1 RES     
    2319 O           49.3310    82.3570     9.5320 O             1 RES     
    2320 O           30.1120    76.0840     8.9200 O             1 RES     
    2321 O           10.4160    51.0990     2.8170 O             1 RES     
    2322 O            5.6430    84.8800     9.6260 O             1 RES     
    2323 O           10.6130    79.6900     9.5080 O             1 RES     
    2324 O           38.9430    80.5190     6.3560 O             1 RES     
    2325 O           10.5100    58.1880     5.4640 O             1 RES     
    2326 O           18.0080    99.7870    12.4920 O             1 RES     
    2327 O           29.9750    68.5390     6.4630 O             1 RES     
    2328 Si          43.5010    56.3350    12.2980 Si            1 RES     
    2329 O           31.0460    83.8030     5.5130 O             1 RES     
    2330 O            8.9270    61.8520    11.1040 O             1 RES     
    2331 O           22.6540    50.6510     6.3860 O             1 RES     
    2332 O           45.1230    82.2190     9.7350 O             1 RES     
    2333 O           15.4250    58.6330     6.4840 O             1 RES     
    2334 O           24.3040    83.2740     3.2250 O             1 RES     
    2335 O           49.8890    63.0660     8.7600 O             1 RES     
    2336 Si           8.1590    61.0630     5.8820 Si            1 RES     
    2337 Si           9.7230    56.6800    12.0750 Si            1 RES     
    2338 Si          28.4790    58.4120     7.7260 Si            1 RES     
    2339 Si           0.5120    57.5370    12.0020 Si            1 RES     
    2340 O            9.6710    55.6550     4.5980 O             1 RES     
    2341 O            0.6430    96.6160     2.2410 O             1 RES     
    2342 O           47.4550    63.8010     8.3070 O             1 RES     
    2343 O           18.8750    75.6890    11.5620 O             1 RES     
    2344 Si           9.6420    79.2860     3.6580 Si            1 RES     
    2345 O            6.7420    77.7270     7.4510 O             1 RES     
    2346 Si           7.3690    61.2960    10.8940 Si            1 RES     
    2347 Si          30.6730    82.5360     9.5370 Si            1 RES     
    2348 O           12.3410    83.3180     7.6750 O             1 RES     
    2349 Si           5.5320    86.0130     8.4250 Si            1 RES     
    2350 Si          23.0290    93.0570    11.1760 Si            1 RES     
    2351 Si          40.9590    58.1710     7.5530 Si            1 RES     
    2352 OS          19.6480    98.2890    13.7740 OS            1 RES     
    2353 O           34.4150    72.6970     5.0520 O             1 RES     
    2354 O           21.5930    53.0260     9.0560 O             1 RES     
    2355 Si          35.2580    64.0110    11.5060 Si            1 RES     
    2356 O           15.8700    82.0780     9.6110 O             1 RES     
    2357 O           27.1660    68.1990     2.9840 O             1 RES     
    2358 O            2.9420    79.6550     4.5650 O             1 RES     
    2359 Si          41.6730    93.7280     5.2710 Si            1 RES     
    2360 O           39.1920    50.5770     7.9150 O             1 RES     
    2361 O           12.7510    69.8360     9.1320 O             1 RES     
    2362 O           21.9460    92.2760    10.3200 O             1 RES     
    2363 O           14.1980    88.2730     2.9000 O             1 RES     
    2364 O           29.3360    82.1020     8.8840 O             1 RES     
    2365 O           49.7930    60.4860     8.6050 O             1 RES     
    2366 O           26.2920    62.6820     9.6340 O             1 RES     
    2367 O            9.8200    75.0990    10.5220 O             1 RES     
    2368 Si          27.4390    69.6000     3.5680 Si            1 RES     
    2369 O            6.6230    64.8530     6.6910 O             1 RES     
    2370 O            8.6230    99.0540    10.4420 O             1 RES     
    2371 O           44.8180    76.8060    10.4470 O             1 RES     
    2372 O           47.2400    96.8150     2.7000 O             1 RES     
    2373 O           34.5170    74.8560     9.2050 O             1 RES     
    2374 O           20.2360    59.1000    10.6340 O             1 RES     
    2375 Si          25.7150    91.7100     2.8710 Si            1 RES     
    2376 O           34.9960    69.4610     9.2060 O             1 RES     
    2377 Si          41.4990    69.5180    11.1150 Si            1 RES     
    2378 Si          15.2730    60.2900    12.5260 Si            1 RES     
    2379 O           36.2120    68.2560     7.4380 O             1 RES     
    2380 O           29.3970    86.5730     9.2700 O             1 RES     
    2381 O            5.0300    73.2810    10.2570 O             1 RES     
    2382 Si           0.3920    92.2210     4.1890 Si            1 RES     
    2383 O            2.2260    76.4020     2.4270 O             1 RES     
    2384 O           49.4230    68.8260    12.6940 O             1 RES     
    2385 O           27.1160    77.9850     5.1480 O             1 RES     
    2386 Si           8.2650    90.9430     4.4180 Si            1 RES     
    2387 O           41.1300    72.0980     6.6650 O             1 RES     
    2388 O           45.5570    81.9600     4.3400 O             1 RES     
    2389 O            0.1660    69.6860     6.1490 O             1 RES     
    2390 Si          33.2720    58.2920    11.3850 Si            1 RES     
    2391 O           22.7000    50.6170     4.0170 O             1 RES     
    2392 O           13.0960    97.7250     5.9260 O             1 RES     
    2393 Si          22.7790    51.7000     2.8520 Si            1 RES     
    2394 O           16.3630    63.3470     5.6630 O             1 RES     
    2395 O           30.9870    98.2450    10.0420 O             1 RES     
    2396 O           37.2390    99.7590     3.5030 O             1 RES     
    2397 Si          30.8900    66.7310     3.3720 Si            1 RES     
    2398 O           26.4990    94.3450     9.2110 O             1 RES     
    2399 O           49.2220    76.2600     7.9750 O             1 RES     
    2400 O           33.9070    81.6450     7.3760 O             1 RES     
    2401 O           43.4510    65.8270    10.1300 O             1 RES     
    2402 Si          46.0430    75.0580     5.6030 Si            1 RES     
    2403 O            1.8810    76.1950     7.7000 O             1 RES     
    2404 O           17.3560    52.2180    11.3970 O             1 RES     
    2405 O            7.1550    67.3080     4.0380 O             1 RES     
    2406 Si          42.4350    60.2010     5.9260 Si            1 RES     
    2407 Si          40.6900    53.0210    11.3890 Si            1 RES     
    2408 O           19.3480    50.7980     2.3270 O             1 RES     
    2409 O           19.9280    79.8800    10.9250 O             1 RES     
    2410 O           19.4570    70.9430     7.8900 O             1 RES     
    2411 O           10.7040    63.2600     9.7220 O             1 RES     
    2412 Si           0.4770    51.6020     5.9420 Si            1 RES     
    2413 O            9.4100    51.3120    10.7100 O             1 RES     
    2414 Si          18.7360    67.6360     9.5480 Si            1 RES     
    2415 O            5.7520    97.8330    12.9800 O             1 RES     
    2416 O           19.8340    57.1440     8.9810 O             1 RES     
    2417 Si          18.1230    58.5540     3.6600 Si            1 RES     
    2418 Si           8.9940    83.1040    10.0430 Si            1 RES     
    2419 O           35.6350    87.2760     4.9160 O             1 RES     
    2420 O           43.9320    80.7370     6.0400 O             1 RES     
    2421 Si          10.3410    86.8300     3.1460 Si            1 RES     
    2422 O           30.0060    84.1070    13.8750 O             1 RES     
    2423 OS          33.7480    83.1240    13.3250 OS            1 RES     
    2424 Si           7.3310    93.7630     4.9050 Si            1 RES     
    2425 O           12.4480    73.4040     3.5910 O             1 RES     
    2426 O           46.8580    91.0190     2.4920 O             1 RES     
    2427 Si          11.1820    70.0760     8.8680 Si            1 RES     
    2428 Si          26.8970    82.7770    12.0530 Si            1 RES     
    2429 O           31.1770    88.7570     3.8720 O             1 RES     
    2430 O           42.7610    86.9040     6.8720 O             1 RES     
    2431 O            0.1790    95.8030    11.0080 O             1 RES     
    2432 O           14.9690    89.8680     4.7060 O             1 RES     
    2433 O            9.7750    80.5060     2.5650 O             1 RES     
    2434 Si          26.2080    85.7160    11.4330 Si            1 RES     
    2435 O           33.8200    51.8110    12.2470 O             1 RES     
    2436 O           32.2410    74.6310     8.4590 O             1 RES     
    2437 O           44.9250    56.9980    12.2900 O             1 RES     
    2438 Si          10.0470    56.9750     9.0140 Si            1 RES     
    2439 O            4.9290    63.9990     8.3470 O             1 RES     
    2440 Si          23.0970    84.0080     6.9800 Si            1 RES     
    2441 O           35.3680    99.2480     6.6070 O             1 RES     
    2442 O           38.6330    53.1870     8.2330 O             1 RES     
    2443 O            9.6790    88.1050     2.4130 O             1 RES     
    2444 O           24.3640    75.9410     9.8980 O             1 RES     
    2445 Si           1.3860    54.4330     6.3760 Si            1 RES     
    2446 O           36.0720    75.4030    10.9870 O             1 RES     
    2447 Si          33.3970    50.4560     4.1020 Si            1 RES     
    2448 O           47.7770    95.4010     4.5940 O             1 RES     
    2449 O           49.6460    50.9140     7.0600 O             1 RES     
    2450 Si          49.7490    92.7510     8.8430 Si            1 RES     
    2451 O           47.7090    70.8010    12.2820 O             1 RES     
    2452 O           21.0710    55.0660     7.7670 O             1 RES     
    2453 Si          17.6200    58.2770    12.5210 Si            1 RES     
    2454 O           23.8990    58.0890     8.4830 O             1 RES     
    2455 O           44.9940    56.8110     5.0230 O             1 RES     
    2456 O           38.3840    77.7090     9.6910 O             1 RES     
    2457 Si           2.3000    99.5910     9.1770 Si            1 RES     
    2458 O           11.0760    67.9080    12.0650 O             1 RES     
    2459 Si           2.4870    95.5200     5.7490 Si            1 RES     
    2460 O           17.3130    67.3870    10.0950 O             1 RES     
    2461 O           38.8030    68.8680     3.1010 O             1 RES     
    2462 O           33.8930    87.3990    11.2720 O             1 RES     
    2463 OS          35.5880    87.9490    13.8270 OS            1 RES     
    2464 OS           5.7350    72.1460    12.4840 OS            1 RES     
    2465 Si          30.0550    70.4620     9.8690 Si            1 RES     
    2466 O            6.6910    71.9270     4.9560 O             1 RES     
    2467 O           17.7340    71.6430     3.5230 O             1 RES     
    2468 O           19.7000    95.8050    10.1940 O             1 RES     
    2469 O           21.0350    60.2870     8.9720 O             1 RES     
    2470 Si           0.3040    61.6260     9.5100 Si            1 RES     
    2471 Si          47.8920    89.8850     5.9730 Si            1 RES     
    2472 Si          25.8660    94.0270    10.5700 Si            1 RES     
    2473 O            3.1940    50.0020     7.9500 O             1 RES     
    2474 O           33.6470    84.4260     4.8550 O             1 RES     
    2475 Si          30.7270    92.4020     8.4770 Si            1 RES     
    2476 Si          34.7700    87.8690     3.8180 Si            1 RES     
    2477 O            0.9940    60.8450     2.6310 O             1 RES     
    2478 O           29.2810    70.1280    11.1720 O             1 RES     
    2479 O           15.4150    57.7660     1.5950 O             1 RES     
    2480 O           18.3850    85.8390     4.7270 O             1 RES     
    2481 Si          45.2900    75.8680     9.3100 Si            1 RES     
    2482 Si          42.5050    72.3130    10.4510 Si            1 RES     
    2483 Si          15.7320    79.5360     3.7050 Si            1 RES     
    2484 Si           9.6690    97.8430     5.4930 Si            1 RES     
    2485 O           12.3740    98.9220     8.1810 O             1 RES     
    2486 O           24.6360    50.9360     7.9300 O             1 RES     
    2487 O           19.8080    53.0050     3.2320 O             1 RES     
    2488 O           35.4430    50.0010    12.9260 O             1 RES     
    2489 O            6.8130    77.9240     9.9120 O             1 RES     
    2490 O           36.6000    88.8690     6.7020 O             1 RES     
    2491 Si          10.1060    69.0830    11.7060 Si            1 RES     
    2492 O           19.5560    65.3870     7.1320 O             1 RES     
    2493 O           13.4780    97.4240     3.3610 O             1 RES     
    2494 OS          33.1620    61.7520    13.1050 OS            1 RES     
    2495 O           10.6930    76.6800     1.2410 O             1 RES     
    2496 O           22.8730    72.8310    11.1670 O             1 RES     
    2497 O           11.8470    71.1590     4.2940 O             1 RES     
    2498 Si          21.9760    62.3940    12.3550 Si            1 RES     
    2499 O           12.8560    59.6200     9.3420 O             1 RES     
    2500 Si          15.5080    88.7700     3.6850 Si            1 RES     
    2501 O           37.2780    92.6790     9.7680 O             1 RES     
    2502 O            8.5470    60.3990     4.4330 O             1 RES     
    2503 O            4.3780    96.6300     8.9120 O             1 RES     
    2504 O           29.9050    95.6210     6.1860 O             1 RES     
    2505 Si          33.6080    64.0500     6.7690 Si            1 RES     
    2506 O            6.9040    64.7780     2.4800 O             1 RES     
    2507 O           17.7290    96.9900     5.8550 O             1 RES     
    2508 O           13.0630    52.0570     5.8520 O             1 RES     
    2509 O           14.9550    70.6690     8.2220 O             1 RES     
    2510 O           26.1070    91.4050     4.3750 O             1 RES     
    2511 O           26.7350    76.8440     2.9100 O             1 RES     
    2512 O           30.0560    52.9350     5.7890 O             1 RES     
    2513 O           45.2980    71.2120     4.8160 O             1 RES     
    2514 O            9.9770    60.8910     9.1250 O             1 RES     
    2515 Si          15.7720    82.3240    11.1840 Si            1 RES     
    2516 O           25.9570    82.4380     4.9530 O             1 RES     
    2517 O           49.6260    88.0500     4.0950 O             1 RES     
    2518 Si          27.7560    72.5190     3.0090 Si            1 RES     
    2519 O            6.1310    68.0340    12.6980 O             1 RES     
    2520 Si          29.6580    62.5070     4.9570 Si            1 RES     
    2521 Si          20.6900    53.4160     4.4270 Si            1 RES     
    2522 O           18.0140    87.6140     6.4480 O             1 RES     
    2523 Si           7.4400    99.6480     6.7860 Si            1 RES     
    2524 O           11.4600    92.1930     3.2080 O             1 RES     
    2525 O            7.4840    92.2850     4.2520 O             1 RES     
    2526 O           20.4090    91.3470     8.5420 O             1 RES     
    2527 O           27.7690    65.8050     3.7780 O             1 RES     
    2528 O           20.8050    72.5490     6.6200 O             1 RES     
    2529 O           47.1940    59.1690     3.9050 O             1 RES     
    2530 OS          43.1990    82.2580    11.8910 OS            1 RES     
    2531 OS           2.5250    51.7930    12.7490 OS            1 RES     
    2532 O           15.8720    81.1240     3.5680 O             1 RES     
    2533 OS          36.9670    73.0980    12.0190 OS            1 RES     
    2534 O           24.6860    55.7720     8.6550 O             1 RES     
    2535 Si           3.3320    67.0320     2.8190 Si            1 RES     
    2536 O           46.1960    69.5610     9.2260 O             1 RES     
    2537 O            4.2990    61.6510     9.3740 O             1 RES     
    2538 Si          43.9040    70.4480     4.8120 Si            1 RES     
    2539 O           24.8680    85.8760    12.2940 O             1 RES     
    2540 O           23.6580    68.9010     3.6840 O             1 RES     
    2541 Si          14.1220    87.2970    12.4430 Si            1 RES     
    2542 Si          48.3240    53.2150     9.4960 Si            1 RES     
    2543 O            8.7600    95.0380    12.2370 O             1 RES     
    2544 Si          35.3480    84.2110     9.5120 Si            1 RES     
    2545 Si          47.0210    50.0510    12.4420 Si            1 RES     
    2546 O           19.9310    83.8980     5.2210 O             1 RES     
    2547 O            7.6010    84.5360     2.5650 O             1 RES     
    2548 O           15.1770    94.2300     2.7320 O             1 RES     
    2549 O           41.9330    87.9030     4.7360 O             1 RES     
    2550 Si           6.2890    67.4690     9.5750 Si            1 RES     
    2551 O           25.4360    61.1810    11.7760 O             1 RES     
    2552 O           10.2860    51.4390     5.2360 O             1 RES     
    2553 O           23.4720    93.8750     7.4750 O             1 RES     
    2554 O            6.0160    94.9060     9.1190 O             1 RES     
    2555 Si          12.5860    59.9290     3.0050 Si            1 RES     
    2556 O            2.3750    65.4810     5.2860 O             1 RES     
    2557 O           27.3190    79.2610    12.4900 O             1 RES     
    2558 Si           5.0570    63.0090     9.6470 Si            1 RES     
    2559 O           18.5420    55.3050     7.9260 O             1 RES     
    2560 O           48.6410    93.7890     8.4790 O             1 RES     
    2561 O           11.8310    80.9040    11.1600 O             1 RES     
    2562 O           35.0670    63.4710     6.3520 O             1 RES     
    2563 Si          42.0050    88.9920     3.5840 Si            1 RES     
    2564 O            8.0640    90.0100     3.0870 O             1 RES     
    2565 Si          28.7100    87.9400     8.8920 Si            1 RES     
    2566 Si           1.4570    57.3840     7.0950 Si            1 RES     
    2567 O           19.5950    81.6930     6.4870 O             1 RES     
    2568 Si          20.2910    60.6330    10.3250 Si            1 RES     
    2569 O           49.4830    59.5720     4.3120 O             1 RES     
    2570 Si          49.2360    80.9390    10.2300 Si            1 RES     
    2571 O           29.8460    91.2250     8.0550 O             1 RES     
    2572 Si          19.0220    75.9820     7.4110 Si            1 RES     
    2573 O           23.4690    63.3370     9.5400 O             1 RES     
    2574 Si          23.9240    74.9980     8.7160 Si            1 RES     
    2575 OS          33.2710    87.9530    13.2690 OS            1 RES     
    2576 OS          22.4530    71.1830    13.0020 OS            1 RES     
    2577 O           25.8540    75.8150     5.0220 O             1 RES     
    2578 O           40.4720    81.4740     8.0220 O             1 RES     
    2579 Si          49.0790    59.2880     7.9830 Si            1 RES     
    2580 OS           6.2560    56.2770    13.5190 OS            1 RES     
    2581 Si          34.2060    90.7980     4.4520 Si            1 RES     
    2582 O           38.6100    87.7160     3.1690 O             1 RES     
    2583 Si           7.0770    70.2490     8.8390 Si            1 RES     
    2584 Si          48.9090    96.5840    11.4290 Si            1 RES     
    2585 O           38.3370    76.5730     2.7100 O             1 RES     
    2586 Si          34.5520    59.9310     7.0270 Si            1 RES     
    2587 Si          20.0360    81.2220    10.1190 Si            1 RES     
    2588 O            2.8930    72.2920     2.5400 O             1 RES     
    2589 Si          27.6670    66.0710     7.8400 Si            1 RES     
    2590 O           28.8060    63.8260     5.0430 O             1 RES     
    2591 Si          24.8180    62.7050    10.9700 Si            1 RES     
    2592 Si          48.9160    83.1910     8.2340 Si            1 RES     
    2593 Si          19.3220    88.0950    12.5930 Si            1 RES     
    2594 Si           1.9380    85.8990    11.6940 Si            1 RES     
    2595 O           49.5410    97.6210    12.5080 O             1 RES     
    2596 O           45.7460    87.2740    11.2740 O             1 RES     
    2597 O           41.7790    80.2140    12.0810 O             1 RES     
    2598 O            9.6630    80.5690    12.2770 O             1 RES     
    2599 Si          19.9030    64.9890     8.5670 Si            1 RES     
    2600 O           25.7710    54.4830     6.4720 O             1 RES     
    2601 O           45.7780    72.3830    11.6510 O             1 RES     
    2602 O           48.9850    82.2290     4.6010 O             1 RES     
    2603 Si          37.7750    89.8480     6.4840 Si            1 RES     
    2604 O            8.1810    51.0180     6.6000 O             1 RES     
    2605 Si          29.5330    83.3360     5.4390 Si            1 RES     
    2606 O           46.2350    73.4670     5.7550 O             1 RES     
    2607 Si          17.2150    78.3100     6.4770 Si            1 RES     
    2608 O           23.2530    57.7300     5.9480 O             1 RES     
    2609 O           20.2230    91.7250     6.0320 O             1 RES     
    2610 Si          14.1060    52.9270    12.3560 Si            1 RES     
    2611 O           19.4250    76.0820     8.9530 O             1 RES     
    2612 Si           7.2080    98.9900     9.7760 Si            1 RES     
    2613 OS          13.0180    87.7460    13.3970 OS            1 RES     
    2614 Si          49.0280    66.6680     9.7360 Si            1 RES     
    2615 O           38.7140    89.7180     7.7470 O             1 RES     
    2616 Si          30.7840    96.8420     5.9520 Si            1 RES     
    2617 O           10.4830    79.8580     4.8470 O             1 RES     
    2618 O           43.3200    91.9460     1.6670 O             1 RES     
    2619 Si          18.2410    62.9120    10.1490 Si            1 RES     
    2620 O           10.7840    93.1810    10.3760 O             1 RES     
    2621 O           42.2450    92.8690     9.2390 O             1 RES     
    2622 Si          28.5000    72.7930     8.3570 Si            1 RES     
    2623 O            4.2370    71.0310    10.8790 O             1 RES     
    2624 O           31.8450    58.4730    11.9550 O             1 RES     
    2625 O           44.0220    72.2570     9.9290 O             1 RES     
    2626 Si          39.1410    99.3650     6.8780 Si            1 RES     
    2627 OS          10.8590    65.6080    13.4570 OS            1 RES     
    2628 Si           5.3790    50.2450     4.5480 Si            1 RES     
    2629 O            8.0870    60.3600     7.2540 O             1 RES     
    2630 O           29.9120    93.3700     9.5960 O             1 RES     
    2631 Si          43.3470    67.3420     9.7490 Si            1 RES     
    2632 O           21.2180    88.5560     4.1250 O             1 RES     
    2633 Si          46.2780    68.2610    10.0530 Si            1 RES     
    2634 O           19.3690    89.5920     7.2420 O             1 RES     
    2635 O           47.3990    63.5140     4.6950 O             1 RES     
    2636 Si          29.8150    83.5000    12.2720 Si            1 RES     
    2637 O           29.7090    54.6080     3.9520 O             1 RES     
    2638 O           24.4790    56.5760     3.9720 O             1 RES     
    2639 Si          45.4830    50.4720     2.9760 Si            1 RES     
    2640 O           42.9600    71.7040     4.9030 O             1 RES     
    2641 O           11.2310    69.0010     2.7990 O             1 RES     
    2642 Si          30.8700    58.1510     3.5780 Si            1 RES     
    2643 Si          10.7240    94.5390     9.5680 Si            1 RES     
    2644 O           44.5910    53.2770    10.0920 O             1 RES     
    2645 OS          40.6880    62.9890    12.1640 OS            1 RES     
    2646 O           23.7620    84.0750     5.5450 O             1 RES     
    2647 O           28.5770    69.4320     4.6810 O             1 RES     
    2648 Si          48.8450    82.4750     3.0400 Si            1 RES     
    2649 O            2.2640    78.7650    11.3580 O             1 RES     
    2650 O            8.7090    68.4050    12.0580 O             1 RES     
    2651 Si          36.6600    79.8290     3.7120 Si            1 RES     
    2652 O           24.6190    71.3980     7.7070 O             1 RES     
    2653 Si          39.7760    77.3710    10.4760 Si            1 RES     
    2654 OS          48.4250    80.9370    11.5870 OS            1 RES     
    2655 O           36.1050    53.2680     8.2910 O             1 RES     
    2656 O           12.4430    51.3040     8.2790 O             1 RES     
    2657 Si          33.4360    66.4340    10.8380 Si            1 RES     
    2658 Si          30.7530    54.1730     5.0870 Si            1 RES     
    2659 O            6.1070    88.0600     5.8620 O             1 RES     
    2660 O           38.6680    86.4770     8.9480 O             1 RES     
    2661 Si          11.1630    59.6020     5.7720 Si            1 RES     
    2662 Si          40.3730    64.4940     8.7190 Si            1 RES     
    2663 O           49.6810    82.3530     7.0340 O             1 RES     
    2664 OS          14.2170    72.5440    13.1760 OS            1 RES     
    2665 O           33.6960    65.5260     7.1440 O             1 RES     
    2666 O           34.6540    99.6130     3.8450 O             1 RES     
    2667 O            0.6790    80.3410     5.3820 O             1 RES     
    2668 Si          19.0850    98.6460    12.2470 Si            1 RES     
    2669 Si          22.1510    52.9900    10.5480 Si            1 RES     
    2670 O           34.7300    86.8210     2.4400 O             1 RES     
    2671 O            2.4910    68.3390     2.9200 O             1 RES     
    2672 Si          46.3210    91.5570     3.9180 Si            1 RES     
    2673 O           35.5150    62.7300     1.6720 O             1 RES     
    2674 O           20.6750    85.7400     9.5880 O             1 RES     
    2675 O           44.1660    76.3470     8.2340 O             1 RES     
    2676 Si           0.5010    75.4290     7.9210 Si            1 RES     
    2677 O           25.2210    89.4880     5.9300 O             1 RES     
    2678 OS          46.3090    85.2350    12.6710 OS            1 RES     
    2679 O           19.1550    57.3510     3.9290 O             1 RES     
    2680 O           24.3180    75.4750     7.2570 O             1 RES     
    2681 O           44.5330    92.4470    10.6150 O             1 RES     
    2682 O           32.8890    87.2560     8.9580 O             1 RES     
    2683 O            1.4300    57.6250    13.2710 O             1 RES     
    2684 Si          10.0770    68.5520     6.3800 Si            1 RES     
    2685 Si          15.4110    62.2030     8.9330 Si            1 RES     
    2686 Si          23.5250    72.0570    12.3530 Si            1 RES     
    2687 O           32.6580    79.0700    10.7970 O             1 RES     
    2688 O           18.9780    61.5120    10.0640 O             1 RES     
    2689 OS          25.6930    69.3670    13.4870 OS            1 RES     
    2690 O           42.1530    59.8200     4.4030 O             1 RES     
    2691 OS          31.5440    67.1520    13.7880 OS            1 RES     
    2692 O           18.3820    57.7760    11.1990 O             1 RES     
    2693 Si          19.9120    75.9010    10.4390 Si            1 RES     
    2694 Si          21.2670    89.6860     3.0300 Si            1 RES     
    2695 O           10.3610    94.5950     2.8460 O             1 RES     
    2696 O           19.7400    95.9700     3.4200 O             1 RES     
    2697 Si          18.8430    60.6020     5.8770 Si            1 RES     
    2698 O           11.3070    74.0840     8.6510 O             1 RES     
    2699 OS          21.1670    51.4560    13.9310 OS            1 RES     
    2700 O            8.0970    79.2030     4.1690 O             1 RES     
    2701 O           33.8360    60.8010     2.9710 O             1 RES     
    2702 O            1.1100    70.6060     3.1090 O             1 RES     
    2703 Si          46.7980    70.7630     8.3390 Si            1 RES     
    2704 O           12.9400    88.4750     8.8170 O             1 RES     
    2705 Si          29.6600    94.8580    10.0510 Si            1 RES     
    2706 O           11.2120    65.4640     8.3510 O             1 RES     
    2707 Si          39.6190    52.0610     8.6460 Si            1 RES     
    2708 OS          19.3910    89.6610    12.7410 OS            1 RES     
    2709 O           47.5620    57.4470     5.5700 O             1 RES     
    2710 Si          39.2700    86.7440    10.3940 Si            1 RES     
    2711 O           43.0340    68.0030     8.3440 O             1 RES     
    2712 Si          31.7660    56.8110     9.2550 Si            1 RES     
    2713 O            2.4310    70.7180     6.6690 O             1 RES     
    2714 Si          41.7730    94.6900    12.3280 Si            1 RES     
    2715 O           28.3720    83.8490     7.0030 O             1 RES     
    2716 OS          12.9090    77.3060    12.5350 OS            1 RES     
    2717 Si           4.1990    55.0560    10.8450 Si            1 RES     
    2718 O           39.9540    55.4880     5.1340 O             1 RES     
    2719 Si           2.1290    64.5270     4.0690 Si            1 RES     
    2720 Si          23.8080    58.7590     7.0580 Si            1 RES     
    2721 O           15.0930    50.7780     4.4410 O             1 RES     
    2722 O           34.8950    54.1750     6.5650 O             1 RES     
    2723 OS          34.3920    79.4680    12.5620 OS            1 RES     
    2724 O            3.3300    72.7720     8.3380 O             1 RES     
    2725 O           18.1330    59.5050     2.4330 O             1 RES     
    2726 O           12.2920    94.5360     9.1110 O             1 RES     
    2727 O            6.9350    70.8710     7.3810 O             1 RES     
    2728 Si           8.2440    87.4110     8.3920 Si            1 RES     
    2729 OS          25.8330    65.4440    13.8280 OS            1 RES     
    2730 Si          13.5490    84.3190    11.9030 Si            1 RES     
    2731 Si          19.7110    57.5830    10.4450 Si            1 RES     
    2732 Si          28.6080    65.3720     4.9640 Si            1 RES     
    2733 O           39.9930    54.1720     3.0720 O             1 RES     
    2734 Si          25.0340    82.0940     8.5620 Si            1 RES     
    2735 O           43.6290    83.2150     5.0040 O             1 RES     
    2736 Si          11.3430    91.5240     4.6710 Si            1 RES     
    2737 Si          27.0130    63.1390     8.3330 Si            1 RES     
    2738 Si          48.9600    63.6160     4.9470 Si            1 RES     
    2739 O           26.9220    79.1920     9.9540 O             1 RES     
    2740 Si           6.3490    76.5680     6.4490 Si            1 RES     
    2741 O           26.2180    53.1580    10.9840 O             1 RES     
    2742 O           33.2120    66.3800     9.3320 O             1 RES     
    2743 OS           6.4260    84.7250    12.1420 OS            1 RES     
    2744 O           19.1830    98.4110     2.8480 O             1 RES     
    2745 Si           2.8540    96.5740     8.6460 Si            1 RES     
    2746 O           40.5630    85.5950     5.7950 O             1 RES     
    2747 O           33.2630    60.6490     7.6910 O             1 RES     
    2748 O           44.8170    99.4930     6.4370 O             1 RES     
    2749 O           15.8050    50.2400    11.7960 O             1 RES     
    2750 Si          29.1690    90.2680     6.9740 Si            1 RES     
    2751 O           24.2300    82.0940     9.9360 O             1 RES     
    2752 OS          36.0060    64.0500    12.9430 OS            1 RES     
    2753 Si           4.1400    81.8930    12.2360 Si            1 RES     
    2754 O           13.9600    85.7890    11.8600 O             1 RES     
    2755 O           10.1560    67.0980     6.7790 O             1 RES     
    2756 O           31.4100    88.4720    11.0010 O             1 RES     
    2757 O           16.3110    59.1870    12.1930 O             1 RES     
    2758 O           49.7160    56.1130    11.9960 O             1 RES     
    2759 Si          46.2190    56.7850     6.0930 Si            1 RES     
    2760 O           49.4500    58.6740    12.1600 O             1 RES     
    2761 O            0.5590    74.8310     9.4250 O             1 RES     
    2762 O           31.0190    62.8100     4.2520 O             1 RES     
    2763 O           42.5120    63.8110     3.3200 O             1 RES     
    2764 O           44.9820    85.0040     3.9540 O             1 RES     
    2765 Si          47.8900    90.3320     9.3920 Si            1 RES     
    2766 OS          40.7650    69.2600    12.4870 OS            1 RES     
    2767 O           49.3310    84.6780     8.0710 O             1 RES     
    2768 O            3.8620    66.9500     1.4150 O             1 RES     
    2769 O            6.5610    59.2230     3.8240 O             1 RES     
    2770 O           34.6850    62.5290    11.3780 O             1 RES     
    2771 Si          24.1050    89.4900    10.4800 Si            1 RES     
    2772 O           33.2570    50.2650     5.6660 O             1 RES     
    2773 O           22.7900    59.8900     7.1890 O             1 RES     
    2774 O           32.6950    85.6060     6.7950 O             1 RES     
    2775 OS           5.9340    78.2390    12.2320 OS            1 RES     
    2776 O           29.9530    65.9870     4.5410 O             1 RES     
    2777 Si          45.8740    63.8780     8.0790 Si            1 RES     
    2778 O           34.1640    67.8210    10.9570 O             1 RES     
    2779 Si          49.1160    70.2060    11.9690 Si            1 RES     
    2780 O           15.7400    60.8380     8.1330 O             1 RES     
    2781 Si           5.7440    96.3750     9.5310 Si            1 RES     
    2782 O           38.2740    74.3050    10.1730 O             1 RES     
    2783 O           43.1520    51.7600     6.8610 O             1 RES     
    2784 O           24.4440    66.8930     9.2070 O             1 RES     
    2785 Si          47.1230    94.1060     8.0430 Si            1 RES     
    2786 Si          32.3110    63.8020     4.0170 Si            1 RES     
    2787 O           27.0840    50.2090     8.7460 O             1 RES     
    2788 Si          42.5260    74.7440    12.2770 Si            1 RES     
    2789 O           48.5480    59.5350     6.5140 O             1 RES     
    2790 O           32.0830    55.2400     9.5810 O             1 RES     
    2791 Si          30.7770    56.9750     6.3810 Si            1 RES     
    2792 O           32.6560    67.3460     3.5770 O             1 RES     
    2793 Si          22.9830    96.9500     5.2330 Si            1 RES     
    2794 Si          10.7820    72.8880     7.5800 Si            1 RES     
    2795 Si          28.5620    60.2560     3.2980 Si            1 RES     
    2796 O           39.5970    58.4610     6.8880 O             1 RES     
    2797 OS          28.0860    77.0470    12.8440 OS            1 RES     
    2798 Si          12.4540    50.0520     9.2110 Si            1 RES     
    2799 O           25.1730    59.3400     6.4250 O             1 RES     
    2800 O           33.3330    94.0330    10.0310 O             1 RES     
    2801 O           41.8390    74.0760     5.2260 O             1 RES     
    2802 Si          37.3600    67.2670     7.9960 Si            1 RES     
    2803 Si          28.2610    78.7300     5.8670 Si            1 RES     
    2804 Si          30.2820    58.1480    12.0040 Si            1 RES     
    2805 O            3.8730    52.3210     7.7110 O             1 RES     
    2806 O           14.0220    60.2330    11.5570 O             1 RES     
    2807 Si          22.5800    63.5060     8.3100 Si            1 RES     
    2808 O           49.1180    51.8730     9.3660 O             1 RES     
    2809 Si          48.9490    64.0960     8.0240 Si            1 RES     
    2810 Si          46.8790    53.8960     6.8860 Si            1 RES     
    2811 O           35.4650    82.8620     6.0240 O             1 RES     
    2812 O           27.1510    87.9040     8.7450 O             1 RES     
    2813 Si          17.7620    73.1290     3.9820 Si            1 RES     
    2814 O           26.4320    67.0710     7.9550 O             1 RES     
    2815 OS          23.7870    78.9780    13.9750 OS            1 RES     
    2816 O           14.9030    72.0870     6.1110 O             1 RES     
    2817 O           16.5420    93.3890     8.1150 O             1 RES     
    2818 O            0.9190    72.9880     4.2150 O             1 RES     
    2819 Si          17.7200    63.2740     4.9340 Si            1 RES     
    2820 O            5.1420    92.4580     8.9610 O             1 RES     
    2821 O           34.5830    58.8080     5.8920 O             1 RES     
    2822 O           27.9120    94.4110     6.9660 O             1 RES     
    2823 Si          48.7060    62.1020    12.1750 Si            1 RES     
    2824 OS          18.3710    63.4360    11.6530 OS            1 RES     
    2825 O           40.0080    54.3710    11.6840 O             1 RES     
    2826 O           18.3840    64.6960     5.1130 O             1 RES     
    2827 O            5.2630    96.3220    11.0400 O             1 RES     
    2828 O           47.8390    71.1070     5.3680 O             1 RES     
    2829 Si          26.3970    65.0080    12.4620 Si            1 RES     
    2830 O           42.3170    76.3140     6.2530 O             1 RES     
    2831 O           25.3350    57.2390    10.7060 O             1 RES     
    2832 Si          31.4810    76.0880     8.1040 Si            1 RES     
    2833 O           49.2420    86.2610     5.9950 O             1 RES     
    2834 O           46.9280    52.4810     9.7930 O             1 RES     
    2835 O           36.5390    80.8970     7.4160 O             1 RES     
    2836 O           32.5680    71.7720     6.0700 O             1 RES     
    2837 O            1.2920    69.6120     8.2810 O             1 RES     
    2838 O           24.1240    62.2340     5.0580 O             1 RES     
    2839 Si           3.8400    53.8590     8.0030 Si            1 RES     
    2840 Si           2.7330    57.5870     9.8720 Si            1 RES     
    2841 O            7.5060    75.9090    11.4880 O             1 RES     
    2842 Si           8.4160    74.7610     7.8710 Si            1 RES     
    2843 OS           1.2370    66.9980    13.2580 OS            1 RES     
    2844 O           14.4070    52.7210     7.7180 O             1 RES     
    2845 O           25.0570    90.4720    11.2770 O             1 RES     
    2846 O           21.3450    81.9200     4.4470 O             1 RES     
    2847 Si          11.9350    89.3810     9.6200 Si            1 RES     
    2848 Si          12.9040    52.3990     7.3500 Si            1 RES     
    2849 O           34.6530    54.1580     4.0910 O             1 RES     
    2850 Si          20.6580    82.5660     5.7020 Si            1 RES     
    2851 O            9.9550    56.7670    10.5320 O             1 RES     
    2852 O            6.3270    99.7210     5.6860 O             1 RES     
    2853 O           28.0230    73.1170     4.3880 O             1 RES     
    2854 Si          13.5940    51.3770     4.4050 Si            1 RES     
    2855 O           26.0460    62.7870     7.0520 O             1 RES     
    2856 Si           8.1330    89.0510    11.0320 Si            1 RES     
    2857 O           29.3400    50.0210     9.9030 O             1 RES     
    2858 OS          20.6290    69.5290    12.8240 OS            1 RES     
    2859 O           46.3110    66.6070     5.0460 O             1 RES     
    2860 O           35.1690    59.0720     8.2150 O             1 RES     
    2861 O           22.7640    86.2150    10.5800 O             1 RES     
    2862 O           21.7240    54.2780    11.3080 O             1 RES     
    2863 O           30.1630    69.2540     8.8420 O             1 RES     
    2864 Si          15.8320    67.6140    10.7090 Si            1 RES     
    2865 O           49.4760    89.6740     5.8810 O             1 RES     
    2866 O           17.5210    63.0590     3.3260 O             1 RES     
    2867 Si          13.2090    93.8680     5.5150 Si            1 RES     
    2868 O           36.7560    78.3420     3.2740 O             1 RES     
    2869 O            0.1930    58.2110     7.5440 O             1 RES     
    2870 O           40.9160    58.9220     9.0310 O             1 RES     
    2871 Si          35.5870    98.5000    12.5270 Si            1 RES     
    2872 OS          32.5230    80.9610    12.8910 OS            1 RES     
    2873 Si          26.3850    80.8540     4.7940 Si            1 RES     
    2874 Si          21.2500    50.8260    12.5180 Si            1 RES     
    2875 O           27.9370    78.7950     7.4510 O             1 RES     
    2876 Si          32.3110    51.7010    11.9900 Si            1 RES     
    2877 O           20.8080    53.1280     6.0350 O             1 RES     
    2878 O           40.3960    69.4270    10.0400 O             1 RES     
    2879 O            8.1620    94.6540     3.9810 O             1 RES     
    2880 O           31.2400    97.1840     7.4300 O             1 RES     
    2881 O           23.7120    52.8520    10.9510 O             1 RES     
    2882 Si          21.9530    99.8670     5.1650 Si            1 RES     
    2883 O           28.4080    82.9060    12.4150 O             1 RES     
    2884 Si           2.6000    89.6720    10.1250 Si            1 RES     
    2885 Si          14.2540    70.1500     9.5970 Si            1 RES     
    2886 Si          33.7110    61.3420    11.5940 Si            1 RES     
    2887 O            2.3200    86.0940    10.2110 O             1 RES     
    2888 Si          33.6340    86.2480     7.9020 Si            1 RES     
    2889 OS          10.7800    55.6640    12.5930 OS            1 RES     
    2890 O           24.1490    93.2310    10.0890 O             1 RES     
    2891 O           43.1390    78.5830    10.8060 O             1 RES     
    2892 O           47.2410    55.9820    11.9870 O             1 RES     
    2893 Si          13.1380    60.7930    10.3950 Si            1 RES     
    2894 O           17.1380    83.0670    11.5390 O             1 RES     
    2895 Si          26.4910    79.8150    11.3490 Si            1 RES     
    2896 O           18.5480    62.0030     5.4170 O             1 RES     
    2897 O           31.5450    85.9710     4.5650 O             1 RES     
    2898 Si           0.7740    97.0520     3.7350 Si            1 RES     
    2899 O            2.5520    57.5940     3.3250 O             1 RES     
    2900 Si          45.9920    82.1560     8.3110 Si            1 RES     
    2901 O           44.3380    96.0900     7.4270 O             1 RES     
    2902 Si          43.0130    79.5670     5.5960 Si            1 RES     
    2903 Si          43.2570    54.0900    10.1390 Si            1 RES     
    2904 OS           6.7530    60.6080    12.1240 OS            1 RES     
    2905 Si          27.4220    53.6870    10.1520 Si            1 RES     
    2906 O           20.0630    89.6790     1.9350 O             1 RES     
    2907 O           17.8060    50.4220     4.2120 O             1 RES     
    2908 O           38.2740    56.0910    11.2360 O             1 RES     
    2909 O            4.5930    89.7580     5.1360 O             1 RES     
    2910 Si          28.9100    51.9180     6.1170 Si            1 RES     
    2911 O           11.7560    56.7500     4.0410 O             1 RES     
    2912 Si          24.7800    87.9610     5.9250 Si            1 RES     
    2913 O            9.0370    58.2650     8.6630 O             1 RES     
    2914 O           24.0770    62.4170     2.5300 O             1 RES     
    2915 O           37.7560    82.9340     2.4400 O             1 RES     
    2916 OS           4.5950    99.1400    14.5170 OS            1 RES     
    2917 O           24.6140    71.0140    11.8510 O             1 RES     
    2918 O           10.7970    97.4620     6.5500 O             1 RES     
    2919 Si          21.8370    91.1810     9.1520 Si            1 RES     
    2920 O            9.1480    57.9230     3.5290 O             1 RES     
    2921 Si          40.5370    59.9940    10.0790 Si            1 RES     
    2922 O            5.7350    55.3190    11.2190 O             1 RES     
    2923 O            1.9570    88.9090     4.9630 O             1 RES     
    2924 O           39.2870    90.1540    10.0700 O             1 RES     
    2925 O            3.8470    67.0590     4.3490 O             1 RES     
    2926 O           17.8950    91.6230     7.1700 O             1 RES     
    2927 Si          41.1600    82.1080     9.2800 Si            1 RES     
    2928 Si           7.5300    68.7090     4.5500 Si            1 RES     
    2929 O           39.2430    60.7900     9.7430 O             1 RES     
    2930 O           38.8950    64.7690     9.3090 O             1 RES     
    2931 Si          32.5590    87.3940    10.4550 Si            1 RES     
    2932 O           36.1270    96.5280     6.8370 O             1 RES     
    2933 O           35.6710    57.5290     3.6010 O             1 RES     
    2934 Si          41.2410    55.5420     6.0670 Si            1 RES     
    2935 O           44.3530    97.2570     5.2990 O             1 RES     
    2936 O           21.0960    61.5510    11.3260 O             1 RES     
    2937 O           36.3140    97.7270     2.8030 O             1 RES     
    2938 Si           3.2690    57.8770     4.6890 Si            1 RES     
    2939 Si          44.3260    82.8360    10.9620 Si            1 RES     
    2940 O            5.9080    94.4830     4.7470 O             1 RES     
    2941 O           37.8670    98.5510     6.9750 O             1 RES     
    2942 Si          47.7890    79.7170     7.8140 Si            1 RES     
    2943 O           10.5360    95.8010    10.8160 O             1 RES     
    2944 O           30.0420    56.9110     3.1560 O             1 RES     
    2945 O           29.3280    75.3040     5.3200 O             1 RES     
    2946 O            2.6590    54.1220     4.7300 O             1 RES     
    2947 O            3.6920    89.0040     2.9030 O             1 RES     
    2948 O           46.0630    57.6860    10.0550 O             1 RES     
    2949 Si          42.8980    89.7550    11.7930 Si            1 RES     
    2950 Si          44.6300    82.1160     5.5620 Si            1 RES     
    2951 Si           6.6730    78.6420     4.1830 Si            1 RES     
    2952 O           35.2920    62.1580     4.2350 O             1 RES     
    2953 O           23.1660    65.8090     4.5290 O             1 RES     
    2954 OS          36.2370    83.6100    13.1820 OS            1 RES     
    2955 O            7.7920    69.5000     3.2450 O             1 RES     
    2956 Si          39.0220    89.1650     3.7950 Si            1 RES     
    2957 O           38.6900    89.3440     5.2950 O             1 RES     
    2958 Si          20.5840    96.4850     9.0350 Si            1 RES     
    2959 Si          26.1220    56.8770     3.7100 Si            1 RES     
    2960 O           20.6050    77.2480    10.9330 O             1 RES     
    2961 O           42.4750    93.0040     4.0240 O             1 RES     
    2962 O           48.6060    66.6050     3.7510 O             1 RES     
    2963 OS          31.7590    78.7610    13.1040 OS            1 RES     
    2964 O           17.4440    60.2380     6.5740 O             1 RES     
    2965 O           29.8050    59.3610     3.5760 O             1 RES     
    2966 O           24.9300    52.2730     5.9240 O             1 RES     
    2967 O           28.3520    60.3970     1.7180 O             1 RES     
    2968 O           45.0480    99.2860     3.9300 O             1 RES     
    2969 O           48.9510    91.4400     9.0160 O             1 RES     
    2970 Si          23.2200    94.8880     8.7860 Si            1 RES     
    2971 O           46.5110    80.6330     8.0910 O             1 RES     
    2972 Si           2.9310    70.3950    11.4460 Si            1 RES     
    2973 O           37.0440    86.4570     7.0990 O             1 RES     
    2974 OS          23.2340    95.3400    13.3730 OS            1 RES     
    2975 Si           4.5790    67.8720    12.0130 Si            1 RES     
    2976 O           31.9420    81.6430     9.0490 O             1 RES     
    2977 Si          20.8980    71.6300     7.9010 Si            1 RES     
    2978 O           20.6810    74.5750    10.5290 O             1 RES     
    2979 Si          49.8680    89.7510    11.6200 Si            1 RES     
    2980 O           46.8890    91.2540    10.2250 O             1 RES     
    2981 Si          41.9310    79.5470    10.6970 Si            1 RES     
    2982 O            0.9740    55.9620     6.5700 O             1 RES     
    2983 O           15.6560    84.3010     8.0550 O             1 RES     
    2984 O           11.1760    99.7570    10.1540 O             1 RES     
    2985 O           16.9850    70.3870     6.9930 O             1 RES     
    2986 O           21.1540    72.3680     9.2110 O             1 RES     
    2987 Si           7.0370    54.9610    12.2210 Si            1 RES     
    2988 O            2.4470    50.3440    10.6000 O             1 RES     
    2989 Si          34.4530    95.6960    12.7250 Si            1 RES     
    2990 O           35.4760    50.9680    10.6270 O             1 RES     
    2991 O           38.3100    66.9160     6.8450 O             1 RES     
    2992 Si          49.5990    60.9130     3.3680 Si            1 RES     
    2993 O           30.3820    90.4390    11.8390 O             1 RES     
    2994 O            2.3780    98.0490     9.1800 O             1 RES     
    2995 O           11.9200    85.5030     8.8340 O             1 RES     
    2996 Si          11.6610    92.2820    11.3350 Si            1 RES     
    2997 O           16.2840    52.2140     9.1100 O             1 RES     
    2998 O           28.8800    73.1380     6.8910 O             1 RES     
    2999 Si          15.1530    58.2330     3.0780 Si            1 RES     
    3000 O           37.6080    66.6840     3.1480 O             1 RES     
    3001 O           16.5280    73.4710     4.8550 O             1 RES     
    3002 O            2.0400    69.3430    10.6480 O             1 RES     
    3003 O           26.6770    82.2300     8.4070 O             1 RES     
    3004 O           34.8490    95.1810     8.5100 O             1 RES     
    3005 O           44.2890    89.3050    11.3820 O             1 RES     
    3006 O           33.8490    70.4930    11.2560 O             1 RES     
    3007 O           22.5550    89.5800     2.1820 O             1 RES     
    3008 O           42.6690    91.1440    11.1220 O             1 RES     
    3009 O            1.5370    76.3480    11.4820 O             1 RES     
    3010 O           31.1460    96.0030     2.2060 O             1 RES     
    3011 O            6.7110    87.0250     8.4600 O             1 RES     
    3012 O           40.4520    76.0420     4.4160 O             1 RES     
    3013 Si           1.4310    79.3570     4.3530 Si            1 RES     
    3014 Si          29.4410    94.1440     6.3630 Si            1 RES     
    3015 Si          34.5620    87.2000    12.6940 Si            1 RES     
    3016 O           15.4150    67.9690     3.7480 O             1 RES     
    3017 O           48.6890    79.9460     9.1440 O             1 RES     
    3018 Si          19.7040    85.1190     4.3010 Si            1 RES     
    3019 Si           9.2350    90.2780     8.5050 Si            1 RES     
    3020 O           10.1700    72.6780     3.4770 O             1 RES     
    3021 O           28.0260    98.4980     3.9550 O             1 RES     
    3022 Si          10.2590    57.0960     4.3300 Si            1 RES     
    3023 Si          10.7680    50.3680     4.1590 Si            1 RES     
    3024 O            7.4330    83.4430    10.3300 O             1 RES     
    3025 O           37.5930    62.8270     9.0240 O             1 RES     
    3026 O           39.2760    99.7930     5.2960 O             1 RES     
    3027 Si          40.4220    72.1860     8.0240 Si            1 RES     
    3028 O           41.5440    80.2860     5.8490 O             1 RES     
    3029 Si          15.1180    73.4980     5.5180 Si            1 RES     
    3030 O           37.2250    94.6220     8.1630 O             1 RES     
    3031 Si          37.4620    79.9450     6.6480 Si            1 RES     
    3032 O           28.2940    52.3970     9.6980 O             1 RES     
    3033 Si          49.9060    66.3460     2.8790 Si            1 RES     
    3034 O            2.1370    71.5170    12.1680 O             1 RES     
    3035 O           43.6060    84.1830    10.4770 O             1 RES     
    3036 Si          40.0440    72.8680     2.7750 Si            1 RES     
    3037 Si          30.3540    99.4740    11.0060 Si            1 RES     
    3038 O           10.4660    78.0500     3.3230 O             1 RES     
    3039 O           43.5030    79.4090     4.0760 O             1 RES     
    3040 O           12.3350    84.3870    10.9070 O             1 RES     
    3041 Si          30.2830    85.4870    10.0540 Si            1 RES     
    3042 O            1.5180    57.7760    10.8100 O             1 RES     
    3043 O           13.9350    98.6380    12.4890 O             1 RES     
    3044 O           11.8470    65.4370     5.8870 O             1 RES     
    3045 Si          36.3330    91.9210    10.7280 Si            1 RES     
    3046 Si          35.4250    99.3560     9.7630 Si            1 RES     
    3047 O           20.1260    60.3950     6.6900 O             1 RES     
    3048 O           42.1540    53.4420    10.9540 O             1 RES     
    3049 OS          48.7590    54.2680    13.4230 OS            1 RES     
    3050 O           34.3070    95.7400    11.1810 O             1 RES     
    3051 Si          28.9580    69.7090    12.6810 Si            1 RES     
    3052 O           13.5450    52.5430     3.3690 O             1 RES     
    3053 Si          10.8420    76.5980     2.8430 Si            1 RES     
    3054 Si          20.2770    73.7320     5.6520 Si            1 RES     
    3055 Si          14.4350    88.4700     8.2500 Si            1 RES     
    3056 O           14.3810    88.4590    11.4540 O             1 RES     
    3057 Si          40.9010    57.9910    12.3730 Si            1 RES     
    3058 Si           4.0140    62.4090     2.8490 Si            1 RES     
    3059 O           46.4900    55.3760     6.6270 O             1 RES     
    3060 O           43.7220    55.6280     2.8890 O             1 RES     
    3061 O            9.7740    58.0690    12.8280 O             1 RES     
    3062 O           11.2780    72.8880     6.1010 O             1 RES     
    3063 Si          34.9060    69.1140     7.6960 Si            1 RES     
    3064 O           14.3030    57.0030     3.5270 O             1 RES     
    3065 O            7.6360    54.7540     3.4860 O             1 RES     
    3066 O            1.1770    86.5940     7.9670 O             1 RES     
    3067 Si          41.8900    86.6090     5.6030 Si            1 RES     
    3068 Si           8.3270    74.6850    10.8860 Si            1 RES     
    3069 Si          48.5580    87.0190     4.7550 Si            1 RES     
    3070 O           18.0280    74.1480     2.7820 O             1 RES     
    3071 O           38.2120    90.3700     3.1680 O             1 RES     
    3072 O           13.2290    68.9340     4.1960 O             1 RES     
    3073 O            1.5240    92.1600     5.3490 O             1 RES     
    3074 O           34.2080    91.4020     2.9950 O             1 RES     
    3075 O            9.9340    80.2440     7.3410 O             1 RES     
    3076 O            2.0630    65.5610     2.9380 O             1 RES     
    3077 Si          27.0240    78.3330     8.6310 Si            1 RES     
    3078 O           38.5380    90.3870    12.5310 O             1 RES     
    3079 O           35.8430    55.7330    11.5410 O             1 RES     
    3080 O           27.5350    52.5990     5.9240 O             1 RES     
    3081 Si          43.6470    56.3850     4.3100 Si            1 RES     
    3082 O           42.4490    95.0810     5.6010 O             1 RES     
    3083 O           38.6840    84.5900     7.1850 O             1 RES     
    3084 Si          43.7680    76.7680     6.7440 Si            1 RES     
    3085 O           47.2250    76.1170     2.2900 O             1 RES     
    3086 O            4.9090    67.5310    10.4690 O             1 RES     
    3087 O           28.7750    55.2600     1.7050 O             1 RES     
    3088 Si          31.4390    71.9590     5.0050 Si            1 RES     
    3089 Si          21.4930    60.7350     7.5580 Si            1 RES     
    3090 O           13.9710    56.4620     5.8890 O             1 RES     
    3091 O           33.0330    63.1450     8.0570 O             1 RES     
    3092 Si          34.9240    83.4730     4.7240 Si            1 RES     
    3093 OS          26.3210    82.7020    13.5690 OS            1 RES     
    3094 Si          31.5440    91.4570    12.4750 Si            1 RES     
    3095 O           29.3740    93.0310     2.4190 O             1 RES     
    3096 O           25.4890    63.7300    12.0520 O             1 RES     
    3097 Si          41.1940    75.4280     5.6740 Si            1 RES     
    3098 Si          25.0190    83.6200     4.5810 Si            1 RES     
    3099 O           25.8520    87.3180     4.9610 O             1 RES     
    3100 O           33.7020    53.5210     8.8710 O             1 RES     
    3101 Si          49.5320    86.2110     7.5480 Si            1 RES     
    3102 O            7.9020    62.8950     5.8120 O             1 RES     
    3103 Si          32.6620    71.5750    11.0900 Si            1 RES     
    3104 Si          41.8410    87.7970     9.8630 Si            1 RES     
    3105 O           24.8970    88.6820     9.4090 O             1 RES     
    3106 O           19.4320    80.9940     8.6450 O             1 RES     
    3107 O           23.0340    56.4600    10.7360 O             1 RES     
    3108 Si           6.1230    71.0220     6.0700 Si            1 RES     
    3109 O           26.2580    57.8970     4.8800 O             1 RES     
    3110 O           24.7020    77.8820     4.0000 O             1 RES     
    3111 O            6.7870    93.4910    11.0880 O             1 RES     
    3112 O            4.7200    76.2960     6.7230 O             1 RES     
    3113 O           37.7030    78.5370     7.3720 O             1 RES     
    3114 O           34.9560    83.9470    11.0150 O             1 RES     
    3115 O           14.4000    71.2030    10.7780 O             1 RES     
    3116 O           17.2170    74.9120    13.6390 O             1 RES     
    3117 O            4.4340    96.6510     3.6400 O             1 RES     
    3118 O           30.7400    91.4030     3.7310 O             1 RES     
    3119 O            4.3840    63.3880    11.0640 O             1 RES     
    3120 OS          22.1030    61.6210    13.7130 OS            1 RES     
    3121 Si          31.4340    97.1230     9.0250 Si            1 RES     
    3122 OS          36.8030    92.6740    12.0850 OS            1 RES     
    3123 Si          22.1270    85.1590     9.6950 Si            1 RES     
    3124 Si           4.3300    91.3140     8.1820 Si            1 RES     
    3125 O           40.7490    78.5730    10.2950 O             1 RES     
    3126 O           32.6930    90.5850     4.9870 O             1 RES     
    3127 O           31.9860    53.9110     4.1460 O             1 RES     
    3128 O           45.5510    59.8530     8.1410 O             1 RES     
    3129 Si          30.2600    76.5190     5.2240 Si            1 RES     
    3130 Si          30.8330    66.8930    12.4020 Si            1 RES     
    3131 Si          33.1600    78.3150     9.5480 Si            1 RES     
    3132 OS          44.0770    97.9320    12.2840 OS            1 RES     
    3133 O           47.5480    88.0060     5.6180 O             1 RES     
    3134 Si          37.6450    77.2860     8.3550 Si            1 RES     
    3135 OS          27.5640    74.5850    13.4620 OS            1 RES     
    3136 O            7.1940    74.1080     3.5390 O             1 RES     
    3137 Si          16.4750    50.4530     5.0370 Si            1 RES     
    3138 OS          19.0150    83.9640    12.9490 OS            1 RES     
    3139 Si          13.7360    96.8480     4.7960 Si            1 RES     
    3140 O           45.7160    53.1720     7.7260 O             1 RES     
    3141 O           47.2460    93.8840     6.4930 O             1 RES     
    3142 O           33.8920    57.0090    12.1530 O             1 RES     
    3143 Si          39.0750    55.0900     3.8950 Si            1 RES     
    3144 O           38.7150    61.9880     2.8450 O             1 RES     
    3145 O           17.3960    95.5620     7.7220 O             1 RES     
    3146 Si          25.4570    50.0150     8.9280 Si            1 RES     
    3147 O           26.8410    81.3830    11.3970 O             1 RES     
    3148 Si           6.6870    78.7520     8.6050 Si            1 RES     
    3149 O           22.9350    58.4130     3.4420 O             1 RES     
    3150 O           39.6580    73.4910     8.2180 O             1 RES     
    3151 O           40.5220    63.4140     7.5850 O             1 RES     
    3152 O           12.5910    90.7200     5.2870 O             1 RES     
    3153 OS          29.9960    71.1650    13.4540 OS            1 RES     
    3154 Si          41.0860    62.8460     6.2010 Si            1 RES     
    3155 Si          16.5360    92.3980     6.8450 Si            1 RES     
    3156 O            5.2850    79.5070     8.5800 O             1 RES     
    3157 Si          45.8050    76.2980     2.8180 Si            1 RES     
    3158 O           13.0470    96.5060     7.9250 O             1 RES     
    3159 O            0.7180    99.8240     8.9760 O             1 RES     
    3160 Si          11.1980    85.2150    10.2120 Si            1 RES     
    3161 O           16.1250    77.2630     7.1250 O             1 RES     
    3162 O           42.0090    58.9310     6.7160 O             1 RES     
    3163 O           29.4600    57.4260     7.0500 O             1 RES     
    3164 Si          24.4940    66.1220     5.1530 Si            1 RES     
    3165 O           14.2950    74.3120     4.4240 O             1 RES     
    3166 O           29.1570    82.0700     6.3030 O             1 RES     
    3167 O           16.2070    92.0650     2.8460 O             1 RES     
    3168 Si           9.1930    52.1070     6.1930 Si            1 RES     
    3169 O           22.3780    60.9030     3.1270 O             1 RES     
    3170 O           29.5450    77.8690     5.5900 O             1 RES     
    3171 Si           9.7130    85.8030     6.0890 Si            1 RES     
    3172 O           16.2530    89.6080     2.5560 O             1 RES     
    3173 O           36.1380    84.2730     4.0100 O             1 RES     
    3174 O           38.8820    92.7470     2.5550 O             1 RES     
    3175 O           41.4980    54.0980     6.5750 O             1 RES     
    3176 O           44.7810    91.7280     3.7870 O             1 RES     
    3177 Si          21.5530    87.3940     5.0980 Si            1 RES     
    3178 O           15.2540    96.7190     5.0130 O             1 RES     
    3179 Si          48.3050    58.8110     5.0710 Si            1 RES     
    3180 Si          19.3380    86.4260     9.9850 Si            1 RES     
    3181 O           47.7060    58.7760     8.5610 O             1 RES     
    3182 O           16.0610    56.3310     7.6540 O             1 RES     
    3183 O           48.3560    60.4680     2.3570 O             1 RES     
    3184 Si           7.5970    65.8860     3.3550 Si            1 RES     
    3185 Si          33.3320    92.4600    10.1280 Si            1 RES     
    3186 Si          46.0100    86.0040     3.3990 Si            1 RES     
    3187 O           46.9380    90.5590     4.9240 O             1 RES     
    3188 Si          14.4050    68.2450     4.9420 Si            1 RES     
    3189 O           46.1040    61.4080     5.6420 O             1 RES     
    3190 O           27.3830    58.8200     6.7370 O             1 RES     
    3191 O           31.8700    65.0560     3.2500 O             1 RES     
    3192 Si          15.9070    60.0890     6.7220 Si            1 RES     
    3193 O           10.8390    65.5770    10.8400 O             1 RES     
    3194 Si           3.8790    73.8550     9.3030 Si            1 RES     
    3195 O           10.9570    71.5610     8.4690 O             1 RES     
    3196 Si           7.0870    77.4220    11.3940 Si            1 RES     
    3197 O           42.1170    70.9600    11.0440 O             1 RES     
    3198 O           41.2090    56.6220     7.2350 O             1 RES     
    3199 Si           3.2300    66.7320     5.8630 Si            1 RES     
    3200 O           25.0490    91.8660     6.4780 O             1 RES     
    3201 Si           1.2730    94.7730    10.5840 Si            1 RES     
    3202 O            2.6120    96.4420     7.0790 O             1 RES     
    3203 O           13.6390    99.8840    10.2120 O             1 RES     
    3204 O           30.6700    84.1810     9.2810 O             1 RES     
    3205 Si          41.1270    92.6480     8.1450 Si            1 RES     
    3206 O           40.0150    56.7220    12.7820 O             1 RES     
    3207 OS          46.5220    64.8410    13.6800 OS            1 RES     
    3208 O           19.5030    87.4470    11.1780 O             1 RES     
    3209 O           40.1420    68.5980     7.4890 O             1 RES     
    3210 O            6.4810    95.2430    12.8770 O             1 RES     
    3211 O            3.6000    94.9390     4.7370 O             1 RES     
    3212 O           40.1310    82.9500    10.1810 O             1 RES     
    3213 Si          26.6890    66.7210     3.0580 Si            1 RES     
    3214 O            7.4210    83.3580     4.5400 O             1 RES     
    3215 O           47.3600    82.4420     2.6270 O             1 RES     
    3216 O           38.3920    95.2230     3.4960 O             1 RES     
    3217 O            2.3880    68.0540     6.4230 O             1 RES     
    3218 O           33.4470    63.1420     3.1830 O             1 RES     
    3219 OS          24.0410    73.1650    13.5520 OS            1 RES     
    3220 O           36.7380    84.8560     9.1230 O             1 RES     
    3221 O           43.6660    85.3340     8.4330 O             1 RES     
    3222 O           39.8860    52.2040    10.2160 O             1 RES     
    3223 OS          49.6020    62.7850    13.2680 OS            1 RES     
    3224 O           33.9400    74.2910     2.7330 O             1 RES     
    3225 O           11.1720    68.9820     5.3790 O             1 RES     
    3226 O           14.0480    59.3350     3.0620 O             1 RES     
    3227 O           42.7380    84.8950     2.7400 O             1 RES     
    3228 O           45.4570    80.3800     2.5570 O             1 RES     
    3229 O           34.2480    85.0790     8.7640 O             1 RES     
    3230 O           14.3800    76.3200    10.8220 O             1 RES     
    3231 Si           5.3480    99.4170    12.7330 Si            1 RES     
    3232 O           34.2900    54.8140    13.7120 O             1 RES     
    3233 O           41.5300    61.3990     6.3670 O             1 RES     
    3234 O           46.0850    85.4200     1.9540 O             1 RES     
    3235 Si          11.4050    72.6560     4.4670 Si            1 RES     
    3236 Si           5.4440    96.3220    12.6150 Si            1 RES     
    3237 O           47.9650    53.8760     8.0230 O             1 RES     
    3238 O           22.6100    74.2770     9.1200 O             1 RES     
    3239 O            8.7410    53.2920     5.2770 O             1 RES     
    3240 O           43.1120    63.3500    10.8740 O             1 RES     
    3241 O           40.3440    98.4660     7.4730 O             1 RES     
    3242 OS           3.4810    54.3130    11.9250 OS            1 RES     
    3243 O           15.4450    87.0720    13.3770 O             1 RES     
    3244 O           30.5520    82.6320    11.0970 O             1 RES     
    3245 O           14.9040    63.0700     7.7000 O             1 RES     
    3246 Si          43.4640    84.5120     4.1050 Si            1 RES     
    3247 O           37.2750    91.3190     6.3480 O             1 RES     
    3248 O           16.5790    58.1120     3.7590 O             1 RES     
    3249 O           44.9030    67.5790     9.8250 O             1 RES     
    3250 O           42.4170    73.6620    11.1840 O             1 RES     
    3251 Si          11.8210    69.6120     4.0960 Si            1 RES     
    3252 O            4.2290    54.2180     9.5200 O             1 RES     
    3253 O           11.9240    53.5670     7.9060 O             1 RES     
    3254 Si          23.2640    78.3340     4.5650 Si            1 RES     
    3255 Si          10.6550    65.6260     6.9070 Si            1 RES     
    3256 Si          16.6240    97.4700     4.8540 Si            1 RES     
    3257 O           42.4230    93.5150    11.6360 O             1 RES     
    3258 O           44.6300    63.0840     4.7050 O             1 RES     
    3259 O           24.8870    73.7760     8.7800 O             1 RES     
    3260 Si          44.1340    64.4970    10.5390 Si            1 RES     
    3261 O            1.7890    61.3740     9.7400 O             1 RES     
    3262 Si          36.3550    98.1240     7.1680 Si            1 RES     
    3263 O           10.2310    99.0210     4.5630 O             1 RES     
    3264 O           28.3610    74.1750     9.0730 O             1 RES     
    3265 O           20.6590    93.6390     4.2780 O             1 RES     
    3266 Si          19.3750    91.1540     7.3020 Si            1 RES     
    3267 O           30.9560    61.5940     8.6360 O             1 RES     
    3268 OS          18.8340    59.1030    13.2000 OS            1 RES     
    3269 OS          18.5960    67.9340    13.0090 OS            1 RES     
    3270 O           46.4730    51.5150     3.5410 O             1 RES     
    3271 O           12.2390    75.8070     3.0760 O             1 RES     
    3272 O            7.1170    99.6020     8.2970 O             1 RES     
    3273 O            7.2630    90.2660     5.4760 O             1 RES     
    3274 Si           5.9150    89.6130     6.0160 Si            1 RES     
    3275 Si           9.3260    80.2780     8.7720 Si            1 RES     
    3276 O           21.8550    62.2470     7.6560 O             1 RES     
    3277 Si          32.0220    95.5090     3.4310 Si            1 RES     
    3278 Si          26.3280    86.2830     3.8650 Si            1 RES     
    3279 Si          29.2960    99.2110     4.6370 Si            1 RES     
    3280 Si           9.8470    99.8200    11.0250 Si            1 RES     
    3281 O           23.2350    87.5940     5.5630 O             1 RES     
    3282 O            4.4610    54.4630     6.6550 O             1 RES     
    3283 O           37.6840    54.5540     4.2990 O             1 RES     
    3284 O            8.1540    93.7040     6.2390 O             1 RES     
    3285 O           16.5850    53.8740     7.1990 O             1 RES     
    3286 Si          43.4070    64.0150     4.5790 Si            1 RES     
    3287 O           29.2980    88.8270     7.6790 O             1 RES     
    3288 O           29.3870    71.7350     9.2020 O             1 RES     
    3289 Si          19.1950    99.8120     3.6240 Si            1 RES     
    3290 O           38.6720    88.0910    11.0390 O             1 RES     
    3291 Si          37.7770    85.5230     8.0530 Si            1 RES     
    3292 O            0.8420    73.7000    11.6950 O             1 RES     
    3293 Si          45.3090    96.5390     8.6930 Si            1 RES     
    3294 O           40.1670    82.8790     5.9980 O             1 RES     
    3295 O           49.4920    62.2080     4.3130 O             1 RES     
    3296 Si          43.2470    68.1450     6.8110 Si            1 RES     
    3297 O            1.2610    95.9670     4.7330 O             1 RES     
    3298 O           20.5560    56.5140    11.2540 O             1 RES     
    3299 Si          46.4700    71.9070     5.5860 Si            1 RES     
    3300 O           33.7270    54.7470    11.2180 O             1 RES     
    3301 O           48.7680    89.6940    10.5490 O             1 RES     
    3302 Si           3.4020    51.0840     6.7640 Si            1 RES     
    3303 O           21.3330    51.8710    11.3530 O             1 RES     
    3304 O           35.5060    61.1090     6.4490 O             1 RES     
    3305 O           26.7580    54.1720     8.6430 O             1 RES     
    3306 OS          44.5140    78.1680    12.7980 OS            1 RES     
    3307 O           37.1250    54.6340     6.7400 O             1 RES     
    3308 Si          42.0090    58.7670     3.2600 Si            1 RES     
    3309 Si          46.1000    62.5440     4.5270 Si            1 RES     
    3310 O           49.5030    90.8540    12.6370 O             1 RES     
    3311 O           11.7300    61.3630    10.8470 O             1 RES     
    3312 Si          10.5060    53.9990     8.3070 Si            1 RES     
    3313 O           26.4340    92.8610    11.3620 O             1 RES     
    3314 OS          10.2690    70.2770    12.7150 OS            1 RES     
    3315 O            4.0880    56.5780     5.0410 O             1 RES     
    3316 Si           4.7960    95.1350     3.8250 Si            1 RES     
    3317 Si          17.2500    86.7620     5.3500 Si            1 RES     
    3318 O           22.6580    85.0170     8.1920 O             1 RES     
    3319 O            4.7760    61.3850     3.7570 O             1 RES     
    3320 Si           2.1730    80.1660    10.6390 Si            1 RES     
    3321 O           29.6660    59.5910    12.2180 O             1 RES     
    3322 O            3.1690    61.5260     1.8630 O             1 RES     
    3323 Si           1.5830    69.4170     6.7290 Si            1 RES     
    3324 Si           4.1910    80.4610     4.9740 Si            1 RES     
    3325 O           18.7420    69.2920     3.6040 O             1 RES     
    3326 OS          29.6860    94.8840    11.6080 OS            1 RES     
    3327 Si          21.1900    92.2330     4.8640 Si            1 RES     
    3328 O           30.7800    70.5740     4.9990 O             1 RES     
    3329 O           19.1700    69.3410     6.1340 O             1 RES     
    3330 Si          21.9210    55.8130    11.6850 Si            1 RES     
    3331 O           30.8090    66.9810     1.4340 O             1 RES     
    3332 O           19.2280    84.6030     2.8800 O             1 RES     
    3333 Si           4.1090    55.0000     5.1770 Si            1 RES     
    3334 O            6.3600    68.8940     8.8740 O             1 RES     
    3335 O            6.2940    50.6990     3.4020 O             1 RES     
    3336 O           15.1280    53.2530    11.2180 O             1 RES     
    3337 Si          24.5940    66.9940    10.8350 Si            1 RES     
    3338 Si          12.2190    97.6710     7.2280 Si            1 RES     
    3339 O           37.6340    93.1750     4.6860 O             1 RES     
    3340 OS          40.8040    59.0420    13.7160 OS            1 RES     
    3341 Si          27.3070    95.2360     8.2250 Si            1 RES     
    3342 O           33.9980    72.9060     7.6760 O             1 RES     
    3343 O           45.1190    87.2770     3.0810 O             1 RES     
    3344 O            6.8140    97.4990     9.5180 O             1 RES     
    3345 O           14.2680    93.1000     4.5660 O             1 RES     
    3346 O           41.9410    88.7310    11.1050 O             1 RES     
    3347 O            5.3760    90.2880     7.4140 O             1 RES     
    3348 O           40.1690    93.8500     4.6990 O             1 RES     
    3349 O           27.7100    90.7150     6.5120 O             1 RES     
    3350 O           40.9140    91.0570     8.2180 O             1 RES     
    3351 O           30.0460    90.2740     5.7160 O             1 RES     
    3352 O           17.3190    97.0070     3.5200 O             1 RES     
    3353 Si          32.9580    54.0070    10.1090 Si            1 RES     
    3354 Si          34.8320    84.0840    12.5900 Si            1 RES     
    3355 OS           7.6280    93.2180    13.5850 OS            1 RES     
    3356 Si          47.7210    76.6370     7.6180 Si            1 RES     
    3357 O           30.9160    76.5840     3.7620 O             1 RES     
    3358 O           23.9220    92.3280    12.3240 O             1 RES     
    3359 OS          25.8880    90.5100    13.6960 OS            1 RES     
    3360 O           36.9150    65.8830     8.6820 O             1 RES     
    3361 O           21.1230    97.8380     9.4230 O             1 RES     
    3362 O           44.2260    51.4090     2.5910 O             1 RES     
    3363 O           21.3940    74.2170     4.6260 O             1 RES     
    3364 O           38.1040    75.3190    12.6240 O             1 RES     
    3365 Si          32.5640    61.8050     8.6730 Si            1 RES     
    3366 O           33.7820    68.0900     7.4940 O             1 RES     
    3367 OS           9.2800    89.5730    11.9060 OS            1 RES     
    3368 O            1.9720    51.2120     6.1930 O             1 RES     
    3369 O           46.1200    97.9080     8.9550 O             1 RES     
    3370 O           15.0400    95.0910     8.8960 O             1 RES     
    3371 O           40.8230    75.8370     1.9520 O             1 RES     
    3372 O            5.1570    83.7200     3.2020 O             1 RES     
    3373 Si          43.0790    97.3120    11.1950 Si            1 RES     
    3374 O           21.8820    68.2290     2.1210 O             1 RES     
    3375 O            9.7870    91.1050     4.7360 O             1 RES     
    3376 O            6.1870    60.7460     5.5900 O             1 RES     
    3377 O           34.0590    99.7060     8.3830 O             1 RES     
    3378 O           46.9490    92.9200     4.2110 O             1 RES     
    3379 O           40.5380    89.4770     3.5280 O             1 RES     
    3380 O           25.0980    98.5330     8.5770 O             1 RES     
    3381 Si          33.8420    95.4100     9.7360 Si            1 RES     
    3382 O            1.0700    79.6330     2.7850 O             1 RES     
    3383 O           31.7480    96.3360     4.7500 O             1 RES     
    3384 O           45.9950    75.4950     4.1030 O             1 RES     
    3385 Si          24.4620    70.2280     4.2260 Si            1 RES     
    3386 O            1.2180    90.0580    10.7650 O             1 RES     
    3387 O           49.7400    69.9800    10.4620 O             1 RES     
    3388 O           36.5850    57.6310    10.1330 O             1 RES     
    3389 O           32.3760    99.8430     3.1810 O             1 RES     
    3390 OS          29.5430    99.3210    12.4220 OS            1 RES     
    3391 Si          38.2170    98.4220    11.3390 Si            1 RES     
    3392 O           21.5430    81.5880     9.9880 O             1 RES     
    3393 O           34.2360    77.1980    10.1070 O             1 RES     
    3394 Si          28.9930    55.7800     3.1930 Si            1 RES     
    3395 O           16.7080    62.7920     9.7260 O             1 RES     
    3396 OS           8.3120    78.2320    12.0050 OS            1 RES     
    3397 Si          17.5100    75.8340    12.3960 Si            1 RES     
    3398 O           13.1120    95.4360     5.0930 O             1 RES     
    3399 O            8.6580    88.8890     7.8230 O             1 RES     
    3400 O           25.4570    80.2240     5.8030 O             1 RES     
    3401 OS          15.4610    80.9980    12.0200 OS            1 RES     
    3402 OS          20.9830    67.0100    12.4260 OS            1 RES     
    3403 O            2.5790    73.0990     5.9300 O             1 RES     
    3404 Si          23.6140    70.2550     7.2040 Si            1 RES     
    3405 O           12.8580    78.5260    10.3000 O             1 RES     
    3406 Si          49.4750    81.2930     5.8120 Si            1 RES     
    3407 OS          30.2560    57.0160    13.1400 OS            1 RES     
    3408 O            1.0510    92.4950     2.7780 O             1 RES     
    3409 O           47.2880    89.8280     7.4040 O             1 RES     
    3410 Si          18.5590    96.0310     6.8330 Si            1 RES     
    3411 Si          34.5940    62.1700     2.8700 Si            1 RES     
    3412 Si          22.8780    82.3050    10.6540 Si            1 RES     
    3413 O           40.5280    65.8970     7.9670 O             1 RES     
    3414 O           49.8640    71.4210    12.6100 O             1 RES     
    3415 Si          42.2390    53.0160     7.4680 Si            1 RES     
    3416 OS           3.7080    82.8340    13.4430 OS            1 RES     
    3417 OS           2.5300    84.7780    12.6110 OS            1 RES     
    3418 O           49.6160    66.5430    11.2260 O             1 RES     
    3419 Si          27.6710    75.6370    12.2540 Si            1 RES     
    3420 O            9.4760    75.8230     3.2250 O             1 RES     
    3421 OS          16.1200    68.1080    12.2320 OS            1 RES     
    3422 Si           2.5000    86.8800     8.8330 Si            1 RES     
    3423 O           10.4580    69.5140    10.2270 O             1 RES     
    3424 O           31.5910    50.4320    11.3760 O             1 RES     
    3425 O           23.7620    70.4510     5.6460 O             1 RES     
    3426 O            6.4440    78.1370     2.6900 O             1 RES     
    3427 Si          32.9600    66.8100     7.8490 Si            1 RES     
    3428 O           45.8420    62.2230     2.9200 O             1 RES     
    3429 Si          32.2490    84.8590     5.3880 Si            1 RES     
    3430 O           43.5730    69.3770     5.9410 O             1 RES     
    3431 O           41.4800    61.2340    10.4330 O             1 RES     
    3432 O           27.1300    69.9590    11.9050 O             1 RES     
    3433 O           15.5340    75.4820     8.9350 O             1 RES     
    3434 O           28.6790    73.3450     2.1370 O             1 RES     
    3435 O           44.5210    67.3100     6.5560 O             1 RES     
    3436 O           13.6740    94.1950     7.0730 O             1 RES     
    3437 OS          14.3730    64.0060    12.1490 OS            1 RES     
    3438 O           15.2320    74.6720     6.5390 O             1 RES     
    3439 O           10.0290    55.5380     8.3100 O             1 RES     
    3440 Si          25.5300    72.6310     7.8570 Si            1 RES     
    3441 O            2.1790    97.9090     3.7720 O             1 RES     
    3442 Si          28.9950    73.7520     5.4270 Si            1 RES     
    3443 Si           3.1650    60.6790    10.1300 Si            1 RES     
    3444 O           16.2890    78.8230     5.1010 O             1 RES     
    3445 O           17.3520    82.1840     7.5460 O             1 RES     
    3446 O           34.8070    89.4040     4.0380 O             1 RES     
    3447 Si          36.5260    92.5080     5.6500 Si            1 RES     
    3448 O           19.9540    56.7290     6.2850 O             1 RES     
    3449 OS           4.6190    62.9200    13.5930 OS            1 RES     
    3450 O            2.3390    54.1420     7.6210 O             1 RES     
    3451 O           41.9660    80.8780     9.8350 O             1 RES     
    3452 Si          35.8660    99.2400     2.9200 Si            1 RES     
    3453 O            8.7220    68.7280     5.6150 O             1 RES     
    3454 OS          14.6250    53.0450    13.8430 OS            1 RES     
    3455 Si          35.9630    87.4350     6.4760 Si            1 RES     
    3456 Si           5.4570    65.2780     7.5350 Si            1 RES     
    3457 OS          27.9400    64.5790    12.6080 OS            1 RES     
    3458 Si          43.3240    91.8310     3.2860 Si            1 RES     
    3459 Si          43.4030    96.2690     6.1900 Si            1 RES     
    3460 Si          29.6460    61.3040     7.7860 Si            1 RES     
    3461 O           36.5260    64.3320    10.5830 O             1 RES     
    3462 O           36.0060    93.7990     6.4990 O             1 RES     
    3463 Si           8.0120    64.4310     6.0600 Si            1 RES     
    3464 O           38.2490    68.3300     8.8490 O             1 RES     
    3465 O           43.7310    69.8350     3.3930 O             1 RES     
    3466 O           27.6680    85.9060     3.0870 O             1 RES     
    3467 O            0.4900    93.5340    10.0180 O             1 RES     
    3468 O           13.6420    85.4190     6.9260 O             1 RES     
    3469 O           12.7540    61.4440     2.6230 O             1 RES     
    3470 Si          12.9910    77.1330    10.9580 Si            1 RES     
    3471 Si          23.8630    95.8620    11.9930 Si            1 RES     
    3472 O           22.2970    98.3590     5.3120 O             1 RES     
    3473 Si          25.9610    55.2320     7.8690 Si            1 RES     
    3474 O           24.2940    51.8930     2.7680 O             1 RES     
    3475 O           16.4760    87.7040     4.3180 O             1 RES     
    3476 O           38.9960    56.4630     3.1540 O             1 RES     
    3477 Si          10.7150    81.6810    12.0640 Si            1 RES     
    3478 O           34.5510    85.6090    12.8760 O             1 RES     
    3479 Si          40.2900    67.2020     6.6710 Si            1 RES     
    3480 O            0.1750    67.8730     2.5890 O             1 RES     
    3481 O           44.9450    75.3230     1.8730 O             1 RES     
    3482 O           25.4540    66.6890     4.0590 O             1 RES     
    3483 O           21.2320    91.1290     3.7910 O             1 RES     
    3484 O           47.9910    70.1320     7.5240 O             1 RES     
    3485 O           28.9260    51.4310     7.6320 O             1 RES     
    3486 Si          24.1400    56.9550     9.6920 Si            1 RES     
    3487 Si          10.0460    95.8610    12.3140 Si            1 RES     
    3488 O           19.5920    96.6460     7.8140 O             1 RES     
    3489 O           49.2820    63.9790     6.4470 O             1 RES     
    3490 Si          32.7610    80.8370     8.0090 Si            1 RES     
    3491 OS          36.0280    69.1090    11.6440 OS            1 RES     
    3492 O           25.9280    86.2850     9.9660 O             1 RES     
    3493 Si           8.0890    59.1650     3.4690 Si            1 RES     
    3494 O            7.4840    93.0870     8.6110 O             1 RES     
    3495 O            1.1320    77.7500     4.4110 O             1 RES     
    3496 Si          41.8280    98.1740     7.9800 Si            1 RES     
    3497 Si          38.2600    59.3290     6.6120 Si            1 RES     
    3498 O           40.4440    95.0910    11.7210 O             1 RES     
    3499 O           22.1720    78.9880    12.0870 O             1 RES     
    3500 O           22.5850    92.3680     5.5940 O             1 RES     
    3501 OS           6.3640    50.9860    13.3560 OS            1 RES     
    3502 O           21.1010    68.6210     4.3820 O             1 RES     
    3503 O           28.6020    75.5380    10.9880 O             1 RES     
    3504 Si          45.1290    66.0420     5.8950 Si            1 RES     
    3505 OS          48.0560    95.4530    12.2910 OS            1 RES     
    3506 O           14.1680    74.4350     1.8690 O             1 RES     
    3507 O           13.8490    63.9900     5.4690 O             1 RES     
    3508 Si          41.6930    72.5180     5.2840 Si            1 RES     
    3509 O            7.7250    60.1780     9.7690 O             1 RES     
    3510 O           15.1780    91.4640     6.7210 O             1 RES     
    3511 O            0.5540    74.3760     6.7230 O             1 RES     
    3512 Si          38.2510    89.6490    11.1770 Si            1 RES     
    3513 O           13.2470    54.9020     3.6700 O             1 RES     
    3514 O           37.0490    58.3670     5.3170 O             1 RES     
    3515 O           18.5340    59.5700     4.7320 O             1 RES     
    3516 O           28.1010    57.5450     8.9600 O             1 RES     
    3517 O            4.4450    99.1510     3.9220 O             1 RES     
    3518 Si          34.1500    50.2340     6.9910 Si            1 RES     
    3519 O           28.9690    50.5530     5.4100 O             1 RES     
    3520 O           25.2910    95.2430    11.4690 O             1 RES     
    3521 OS          48.5810    50.0460    12.8100 OS            1 RES     
    3522 O            9.1010    91.7060     7.7430 O             1 RES     
    3523 OS          48.7460    66.5420    13.5350 OS            1 RES     
    3524 O            2.8580    81.2520    11.5010 O             1 RES     
    3525 O           28.9490    82.9340     4.0500 O             1 RES     
    3526 Si          46.1820    63.6870    12.6920 Si            1 RES     
    3527 O           22.4060    77.0210     4.5720 O             1 RES     
    3528 O           32.4200    72.4380     3.8130 O             1 RES     
    3529 Si          19.3320    87.9810     7.2560 Si            1 RES     
    3530 OS           1.1850    99.5760    12.8470 OS            1 RES     
    3531 Si          23.2730    86.9670    11.8210 Si            1 RES     
    3532 O           25.0460    87.2640     7.3890 O             1 RES     
    3533 O           14.9480    69.2350     6.0250 O             1 RES     
    3534 Si          47.2880    98.5670     9.7450 Si            1 RES     
    3535 Si          39.1580    55.4970    12.3780 Si            1 RES     
    3536 O            6.1050    85.7080     4.4190 O             1 RES     
    3537 O           36.5980    52.3970    12.3880 O             1 RES     
    3538 Si          15.4760    70.6070     6.7620 Si            1 RES     
    3539 O           14.5900    83.3570    11.3350 O             1 RES     
    3540 Si          17.0470    50.9500    12.4370 Si            1 RES     
    3541 O            2.3170    57.2640     8.3850 O             1 RES     
    3542 O            9.0200    86.3940     7.3610 O             1 RES     
    3543 OS           0.4130    86.1710    11.9020 OS            1 RES     
    3544 O            7.3160    67.2230    10.7510 O             1 RES     
    3545 O           48.3180    99.4250     8.8890 O             1 RES     
    3546 Si          46.3050    57.2390    11.5810 Si            1 RES     
    3547 Si           0.9870    72.4530    12.7220 Si            1 RES     
    3548 O           26.4740    66.1000     1.6920 O             1 RES     
    3549 O           12.0960    59.1050     6.9030 O             1 RES     
    3550 Si          34.7290    69.2200    10.7460 Si            1 RES     
    3551 O            9.8690    86.6850     4.6570 O             1 RES     
    3552 O           41.9290    67.3280     6.3350 O             1 RES     
    3553 O            9.4350    96.6280     4.5100 O             1 RES     
    3554 O           40.4240    58.4670     2.8820 O             1 RES     
    3555 Si          26.2590    57.5200    11.9100 Si            1 RES     
    3556 O           32.8230    96.4750     9.3520 O             1 RES     
    3557 Si           6.6160    72.6860     3.5980 Si            1 RES     
    3558 O           27.6590    76.8770     8.9330 O             1 RES     
    3559 Si          15.6720    93.1520     3.8470 Si            1 RES     
    3560 O           44.8030    75.8370     6.1180 O             1 RES     
    3561 O           12.3800    50.3960     4.1410 O             1 RES     
    3562 O           39.3280   124.2340     3.1580 O             1 RES     
    3563 O            8.4580   148.5390     6.1960 O             1 RES     
    3564 O            9.9370   134.3450     9.7080 O             1 RES     
    3565 O           27.9310   120.9500     2.9650 O             1 RES     
    3566 Si          34.0510   121.9090     6.4800 Si            1 RES     
    3567 O           31.4160   117.1410     7.9150 O             1 RES     
    3568 O            7.4230   125.4710     6.7820 O             1 RES     
    3569 O           47.1120   103.1090     5.5400 O             1 RES     
    3570 O           32.8980   107.8050     9.9470 O             1 RES     
    3571 Si          38.7810   111.9610     4.5220 Si            1 RES     
    3572 OS          25.3700   101.5880    12.7280 OS            1 RES     
    3573 O           28.2200   107.4620    11.4690 O             1 RES     
    3574 O           41.5420   122.2820     9.1930 O             1 RES     
    3575 Si           1.2140   126.3900     3.6200 Si            1 RES     
    3576 O           32.1660   142.1050     9.0280 O             1 RES     
    3577 O           26.2930   146.3710     7.6460 O             1 RES     
    3578 O           17.5360   125.3840     7.5700 O             1 RES     
    3579 Si          37.4340   104.1390     8.1680 Si            1 RES     
    3580 O           35.4360   132.8570     8.7280 O             1 RES     
    3581 O           23.7070   124.5910     4.9950 O             1 RES     
    3582 O            9.6650   131.9680     5.7910 O             1 RES     
    3583 Si          45.4860   122.8860    10.2000 Si            1 RES     
    3584 Si          19.9930   118.2280    12.3350 Si            1 RES     
    3585 O           24.5250   130.7410     7.9630 O             1 RES     
    3586 O           32.6640   141.9310    11.4990 O             1 RES     
    3587 O            6.5590   127.3500     5.0100 O             1 RES     
    3588 Si           8.9520   133.0600     4.9870 Si            1 RES     
    3589 O           40.1130   125.9410     9.7650 O             1 RES     
    3590 O           20.6210   137.5380     6.4480 O             1 RES     
    3591 Si          24.6920   129.4830     6.9840 Si            1 RES     
    3592 Si          19.3940   115.7420     5.6330 Si            1 RES     
    3593 O           29.8760   111.7970     6.2890 O             1 RES     
    3594 O           37.9360   130.6050     3.1040 O             1 RES     
    3595 O           49.3000   143.1650     4.7740 O             1 RES     
    3596 O           49.2410   115.4300     8.7790 O             1 RES     
    3597 Si          16.0040   125.6960     7.5250 Si            1 RES     
    3598 O           10.2360   103.4110     9.6970 O             1 RES     
    3599 O           43.4210   128.2730     6.3950 O             1 RES     
    3600 O            0.1870   140.6520     3.9740 O             1 RES     
    3601 O           11.9330   136.8760     3.0060 O             1 RES     
    3602 Si          43.8870   100.3740     7.3530 Si            1 RES     
    3603 O           23.3580   112.3080    11.7210 O             1 RES     
    3604 Si          25.3870   141.5760    12.4880 Si            1 RES     
    3605 O           46.0860   121.2950     7.0170 O             1 RES     
    3606 O           21.7340   106.6160     4.3500 O             1 RES     
    3607 O           23.6280   138.4180    11.4120 O             1 RES     
    3608 O           48.4240   130.3200     6.4430 O             1 RES     
    3609 O           14.8410   123.7240    11.1040 O             1 RES     
    3610 O           13.8720   107.7270     8.0010 O             1 RES     
    3611 O           42.9320   135.6550     5.0210 O             1 RES     
    3612 Si          14.9580   122.2990    11.7660 Si            1 RES     
    3613 Si           1.3660   123.9370     5.4410 Si            1 RES     
    3614 OS          17.8410   137.7820    13.0870 OS            1 RES     
    3615 O            2.1070   145.4170     9.4240 O             1 RES     
    3616 Si          23.7100   128.9220    12.3920 Si            1 RES     
    3617 O           38.9530   135.4330    11.0830 O             1 RES     
    3618 O           18.9750   137.1960     8.6150 O             1 RES     
    3619 O           20.4090   149.8920     4.6600 O             1 RES     
    3620 OS          45.0010   136.9310    13.7540 OS            1 RES     
    3621 O           46.3590   138.6730     9.4100 O             1 RES     
    3622 Si          30.3630   142.9570     3.6210 Si            1 RES     
    3623 O           22.5390   100.6400     1.6870 O             1 RES     
    3624 Si          47.8950   143.8810     5.0840 Si            1 RES     
    3625 O           21.7380   145.4450     8.6830 O             1 RES     
    3626 O           29.7260   134.7920    11.3840 O             1 RES     
    3627 O           28.0750   105.0820    10.5820 O             1 RES     
    3628 Si          24.9300   147.1050     7.6980 Si            1 RES     
    3629 O           49.2420   147.3080     4.1190 O             1 RES     
    3630 OS          42.6700   139.8890    13.3630 OS            1 RES     
    3631 O           30.4550   107.1310    10.0400 O             1 RES     
    3632 Si          23.1700   107.2460     4.4180 Si            1 RES     
    3633 O           22.6910   140.0080     9.8390 O             1 RES     
    3634 O            9.2430   134.4260     5.6130 O             1 RES     
    3635 Si          35.9510   145.0840     7.4200 Si            1 RES     
    3636 O           13.0020   114.6690    10.0680 O             1 RES     
    3637 Si          22.3030   118.2180     3.4300 Si            1 RES     
    3638 O           38.6920   144.6600     9.9650 O             1 RES     
    3639 Si           5.3750   136.6310     5.4460 Si            1 RES     
    3640 O           31.6610   106.9240     7.6810 O             1 RES     
    3641 OS           2.1040   144.4950    11.9170 OS            1 RES     
    3642 O           33.2710   137.6820     4.3090 O             1 RES     
    3643 O           34.7990   141.8550    10.2240 O             1 RES     
    3644 Si          20.4020   145.1770     4.5950 Si            1 RES     
    3645 Si          30.0820   117.9670     7.9450 Si            1 RES     
    3646 O           30.5780   143.3520     7.2540 O             1 RES     
    3647 O           19.3900   132.4830    10.8440 O             1 RES     
    3648 O           38.7970   147.0110    10.9690 O             1 RES     
    3649 Si          39.4990   119.3740     8.7080 Si            1 RES     
    3650 Si           3.8240   129.5800     7.9930 Si            1 RES     
    3651 O           37.3440   108.4030     7.9400 O             1 RES     
    3652 O           15.1020   137.0500     8.0510 O             1 RES     
    3653 O            9.6790   103.5510     2.8980 O             1 RES     
    3654 O           31.5790   143.9430     3.5960 O             1 RES     
    3655 Si          35.8900   112.3490     5.6510 Si            1 RES     
    3656 O            4.2640   109.0260     4.7800 O             1 RES     
    3657 O           44.0270   115.3980     4.9560 O             1 RES     
    3658 OS          38.3090   133.0360    11.9640 OS            1 RES     
    3659 Si          32.8510   129.5180    12.2650 Si            1 RES     
    3660 O           22.9350   141.4540     7.9210 O             1 RES     
    3661 O           30.0370   149.7050     3.3810 O             1 RES     
    3662 Si           3.5000   138.7530     4.4320 Si            1 RES     
    3663 O           38.2010   110.6540     7.5920 O             1 RES     
    3664 O            9.7210   144.1600     8.4230 O             1 RES     
    3665 O           38.4650   125.9060     8.1340 O             1 RES     
    3666 O            6.0940   116.2190     8.6880 O             1 RES     
    3667 Si          15.1630   135.7140     7.3010 Si            1 RES     
    3668 OS           7.6490   116.0520    13.1470 OS            1 RES     
    3669 O           31.1850   107.8320     5.0870 O             1 RES     
    3670 O           24.1550   146.1000     8.5750 O             1 RES     
    3671 O            8.2810   106.0230    12.1260 O             1 RES     
    3672 O           45.3310   124.4320     9.8760 O             1 RES     
    3673 Si          25.6960   137.4590     8.8510 Si            1 RES     
    3674 O            2.2070   113.1450    12.8520 O             1 RES     
    3675 O           49.6470   115.8970     1.3740 O             1 RES     
    3676 Si          15.9380   132.7240     8.1010 Si            1 RES     
    3677 Si           7.5200   144.1720    12.3700 Si            1 RES     
    3678 O           30.4440   123.0700     5.2210 O             1 RES     
    3679 O           46.7050   147.7370     5.0130 O             1 RES     
    3680 O           11.4490   107.4630     8.7760 O             1 RES     
    3681 Si          23.7950   101.6760     6.8390 Si            1 RES     
    3682 O            2.8600   130.0720     9.2260 O             1 RES     
    3683 Si          21.9800   130.9280     3.3940 Si            1 RES     
    3684 O           24.3500   118.9630     7.6670 O             1 RES     
    3685 Si          22.5320   125.0840     4.1390 Si            1 RES     
    3686 O            3.2820   109.1310    10.0050 O             1 RES     
    3687 Si          18.5560   133.6670    11.4620 Si            1 RES     
    3688 O           39.1110   121.6780     2.3750 O             1 RES     
    3689 O           17.6690   129.6720     7.1160 O             1 RES     
    3690 Si          20.2150   106.4960     4.7090 Si            1 RES     
    3691 Si          26.0590   140.8180     5.8490 Si            1 RES     
    3692 O           28.9650   138.7850    10.2090 O             1 RES     
    3693 O           40.1500   116.6990     2.3940 O             1 RES     
    3694 Si          49.4280   100.5340     8.6050 Si            1 RES     
    3695 O            4.7720   121.7590     6.4550 O             1 RES     
    3696 O           24.2530   133.2980     7.8670 O             1 RES     
    3697 Si          10.7020   130.7490     6.1000 Si            1 RES     
    3698 O           42.6700   105.6730     5.2900 O             1 RES     
    3699 Si          14.2700   149.9640    11.6860 Si            1 RES     
    3700 O            6.6100   121.1300    10.0300 O             1 RES     
    3701 O           49.4510   111.8250    10.8060 O             1 RES     
    3702 O           41.1260   113.8420     9.8870 O             1 RES     
    3703 O           45.6810   115.0260     7.0230 O             1 RES     
    3704 O           46.7460   126.3010     8.8480 O             1 RES     
    3705 O           27.8520   130.1570     5.1630 O             1 RES     
    3706 O           14.0080   116.7380     5.3380 O             1 RES     
    3707 O           27.0560   141.8310     1.9940 O             1 RES     
    3708 Si          13.3490   124.6240     3.2190 Si            1 RES     
    3709 O           25.9020   134.8710     4.4290 O             1 RES     
    3710 O           20.1230   104.8830     4.5910 O             1 RES     
    3711 O           34.1470   115.1210    11.3000 O             1 RES     
    3712 Si           1.3730   122.1510     2.9220 Si            1 RES     
    3713 O           49.7900   125.9860     3.1710 O             1 RES     
    3714 O           32.2150   127.3290     8.7490 O             1 RES     
    3715 O           42.4190   113.5680     5.7240 O             1 RES     
    3716 O           37.2140   105.2770     9.2580 O             1 RES     
    3717 OS           0.6460   127.9250    13.3760 OS            1 RES     
    3718 Si           0.8110   119.1590     9.6580 Si            1 RES     
    3719 O           30.5330   118.1760     4.0030 O             1 RES     
    3720 O           41.9850   133.4010     8.8860 O             1 RES     
    3721 OS           6.9590   138.8170    12.1150 OS            1 RES     
    3722 O           23.5630   128.8290     6.0310 O             1 RES     
    3723 Si          36.8960   106.1620    10.4730 Si            1 RES     
    3724 OS          30.9060   142.8970    12.8760 OS            1 RES     
    3725 O           22.3450   133.7720    10.4280 O             1 RES     
    3726 Si          38.7720   149.4470     3.8340 Si            1 RES     
    3727 Si          20.6320   128.6790    11.6590 Si            1 RES     
    3728 O           29.1060   109.9070     8.0490 O             1 RES     
    3729 O            4.3300   116.1090     6.8260 O             1 RES     
    3730 Si          46.1970   108.4660     8.6420 Si            1 RES     
    3731 O           31.4770   120.9200    10.3250 O             1 RES     
    3732 O           23.6740   113.7090     7.1970 O             1 RES     
    3733 O           25.7850   116.0530    11.2930 O             1 RES     
    3734 Si          25.0720   102.0650    11.2810 Si            1 RES     
    3735 O            6.5130   112.3630    10.0980 O             1 RES     
    3736 O           31.2430   126.1310     6.4910 O             1 RES     
    3737 O           29.5560   143.4330     4.9100 O             1 RES     
    3738 O            5.5290   129.6980     4.5780 O             1 RES     
    3739 Si          12.1290   129.9390     9.9840 Si            1 RES     
    3740 Si          42.9810   142.5610    10.5600 Si            1 RES     
    3741 O            0.0220   114.5270     4.1100 O             1 RES     
    3742 O           27.5270   106.1070     3.8020 O             1 RES     
    3743 OS          12.7250   103.7090    12.4850 OS            1 RES     
    3744 Si           9.4180   102.8310    10.8570 Si            1 RES     
    3745 O           31.6600   136.1520    10.5500 O             1 RES     
    3746 Si          18.5290   131.0570     7.4200 Si            1 RES     
    3747 OS          22.9530   145.1110    10.9490 OS            1 RES     
    3748 O           47.5310   128.1790     7.5710 O             1 RES     
    3749 O           22.0970   102.9560     3.5790 O             1 RES     
    3750 O           23.9750   147.1680     6.4300 O             1 RES     
    3751 Si          35.6350   107.7970     5.0950 Si            1 RES     
    3752 Si          15.2560   125.1420    10.4270 Si            1 RES     
    3753 O           18.6580   135.0890    10.6360 O             1 RES     
    3754 O           20.2660   137.5690    13.8000 O             1 RES     
    3755 O           29.7200   118.0810    12.3670 O             1 RES     
    3756 O           26.0000   119.8770     4.2940 O             1 RES     
    3757 O           41.0400   102.2550     8.1180 O             1 RES     
    3758 Si          26.5050   109.2230     5.5330 Si            1 RES     
    3759 O           36.9120   140.4130    10.7990 O             1 RES     
    3760 O           20.7340   115.2520     4.9050 O             1 RES     
    3761 O           19.4960   118.3400    10.8120 O             1 RES     
    3762 O           22.9330   102.9620     7.0930 O             1 RES     
    3763 O           46.3160   148.9330    13.3120 O             1 RES     
    3764 O           25.5590   123.5770     6.4960 O             1 RES     
    3765 O           34.9440   148.6380    11.0810 O             1 RES     
    3766 Si          25.5740   119.7440    11.9030 Si            1 RES     
    3767 O            0.6750   130.5180    10.5840 O             1 RES     
    3768 Si          19.9420   106.1710     7.7720 Si            1 RES     
    3769 Si          23.1990   112.0790     3.8050 Si            1 RES     
    3770 O           30.8380   105.4450     5.9680 O             1 RES     
    3771 O           45.9100   107.5290     7.3860 O             1 RES     
    3772 Si           3.6840   112.8230    12.3480 Si            1 RES     
    3773 OS          18.8100   144.6700    12.2700 OS            1 RES     
    3774 Si          38.0060   111.3040     9.0220 Si            1 RES     
    3775 O           20.9740   136.1480     4.3800 O             1 RES     
    3776 O           33.5230   145.4890     2.9160 O             1 RES     
    3777 O           23.1790   131.3580     2.5010 O             1 RES     
    3778 Si           9.2410   145.5480     3.3790 Si            1 RES     
    3779 Si          34.3650   105.5360    12.3320 Si            1 RES     
    3780 Si          39.6160   125.8090     3.1450 Si            1 RES     
    3781 O           28.8550   116.9830     8.2740 O             1 RES     
    3782 Si          10.8730   125.4460     9.4090 Si            1 RES     
    3783 OS           2.9380   127.3670    13.5110 OS            1 RES     
    3784 OS          33.3940   145.2420    13.7960 OS            1 RES     
    3785 Si          45.8650   131.8970     2.7980 Si            1 RES     
    3786 O           43.3990   105.4610    10.9030 O             1 RES     
    3787 O           45.3100   132.5620     6.9560 O             1 RES     
    3788 O           21.8170   145.9040     5.1190 O             1 RES     
    3789 O           42.0710   147.7170     9.4400 O             1 RES     
    3790 Si          35.4420   132.0520     7.3890 Si            1 RES     
    3791 O           45.1310   114.1860     9.3770 O             1 RES     
    3792 O           13.7230   101.3210    12.2550 O             1 RES     
    3793 O           28.4180   112.2310     8.3410 O             1 RES     
    3794 O           48.1150   103.6560     3.2300 O             1 RES     
    3795 O           24.3630   121.2010     2.9820 O             1 RES     
    3796 Si           0.4750   139.2730     4.6870 Si            1 RES     
    3797 Si          49.8290   117.2240    12.6160 Si            1 RES     
    3798 O           11.8830   142.9360     5.5030 O             1 RES     
    3799 O           48.1000   118.5900     5.2710 O             1 RES     
    3800 Si          13.5760   145.1310     8.3190 Si            1 RES     
    3801 O            7.9420   129.6150     8.5510 O             1 RES     
    3802 O           19.4490   116.2870     9.2650 O             1 RES     
    3803 O           21.8720   133.0660     6.7000 O             1 RES     
    3804 Si          28.1680   132.5160     7.8900 Si            1 RES     
    3805 O            9.3260   114.7530     6.8240 O             1 RES     
    3806 Si          33.4080   123.7200     8.8770 Si            1 RES     
    3807 O           22.0920   120.6210     7.5910 O             1 RES     
    3808 O            3.4620   106.4040    10.5250 O             1 RES     
    3809 Si          37.3120   124.5400    11.4470 Si            1 RES     
    3810 O           26.2140   125.8960    11.8030 O             1 RES     
    3811 Si          39.0690   117.2800     3.3630 Si            1 RES     
    3812 O           38.6180   134.2620     4.5350 O             1 RES     
    3813 Si          37.6040   134.2130     3.3530 Si            1 RES     
    3814 O            0.7970   142.5890     7.7990 O             1 RES     
    3815 O           22.2110   113.2820     3.8790 O             1 RES     
    3816 O            3.3010   142.0190     7.2270 O             1 RES     
    3817 O           42.6960   140.5310     3.8590 O             1 RES     
    3818 Si          17.0000   105.1450     8.0970 Si            1 RES     
    3819 O           47.1890   125.8760     6.4000 O             1 RES     
    3820 O           42.6210   118.3830    10.7470 O             1 RES     
    3821 O            8.0760   115.1190     4.6190 O             1 RES     
    3822 Si          45.0950   138.4250    10.3500 Si            1 RES     
    3823 O           45.8150   100.0320     1.4580 O             1 RES     
    3824 Si          12.9980   131.8610     7.7030 Si            1 RES     
    3825 O           18.4430   118.7220     8.4660 O             1 RES     
    3826 O           24.4370   116.7460     6.5860 O             1 RES     
    3827 Si          14.9540   112.9100     6.0530 Si            1 RES     
    3828 O           14.9650   118.7910     9.9840 O             1 RES     
    3829 Si          24.7280   126.1950    11.4530 Si            1 RES     
    3830 O           47.3630   132.9210     8.3330 O             1 RES     
    3831 O           32.0960   116.7640    11.4900 O             1 RES     
    3832 O           34.8860   147.1780    12.9650 O             1 RES     
    3833 O           12.7500   115.3170     3.5650 O             1 RES     
    3834 O           35.1600   141.7720     5.1760 O             1 RES     
    3835 O           46.3020   143.3040     9.1230 O             1 RES     
    3836 O           21.4630   114.5980     8.6160 O             1 RES     
    3837 O           38.8250   147.9060     3.5560 O             1 RES     
    3838 O           33.4650   101.9990     3.7860 O             1 RES     
    3839 O           27.3030   114.6550     8.4230 O             1 RES     
    3840 O           24.3010   127.5890    11.8080 O             1 RES     
    3841 O           18.4060   147.3430    11.6440 O             1 RES     
    3842 O            6.4100   119.6400     5.3440 O             1 RES     
    3843 Si          48.5780   119.7920     6.0330 Si            1 RES     
    3844 Si          13.2120   106.2720     4.4060 Si            1 RES     
    3845 Si          38.8670   143.7710     3.9090 Si            1 RES     
    3846 O           16.1730   135.9180     6.1790 O             1 RES     
    3847 Si          46.9800   102.9410     3.9820 Si            1 RES     
    3848 O           16.4210   148.9450     5.2640 O             1 RES     
    3849 Si          28.4320   100.9860     9.0180 Si            1 RES     
    3850 O            3.7910   119.2340    12.2220 O             1 RES     
    3851 Si          37.3810   114.3720     9.2660 Si            1 RES     
    3852 O           39.6090   117.1140     4.7570 O             1 RES     
    3853 O           18.9850   123.2030     4.9360 O             1 RES     
    3854 O           33.3830   129.5890     8.6530 O             1 RES     
    3855 Si           6.5040   134.3540     3.6440 Si            1 RES     
    3856 O           10.6390   141.7210    12.3230 O             1 RES     
    3857 Si          21.8010   123.4750    10.1490 Si            1 RES     
    3858 O           32.1880   102.9370    11.0530 O             1 RES     
    3859 O           48.2850   137.1040     8.2830 O             1 RES     
    3860 OS          41.0400   102.3510    12.7430 OS            1 RES     
    3861 Si          23.6110   142.4730     6.8000 Si            1 RES     
    3862 Si          39.1900   124.7630     8.9630 Si            1 RES     
    3863 OS          23.5860   147.4960    12.0860 OS            1 RES     
    3864 OS          35.6550   144.6830    12.9390 OS            1 RES     
    3865 O           38.8090   110.5150     5.0240 O             1 RES     
    3866 Si           7.5450   117.4300    12.2700 Si            1 RES     
    3867 O           11.9280   110.0130     4.3980 O             1 RES     
    3868 O           47.4460   112.9720    12.0550 O             1 RES     
    3869 O           16.4350   101.3450     6.4240 O             1 RES     
    3870 Si          10.3130   111.8920    10.4020 Si            1 RES     
    3871 O           11.2070   132.3640    13.4470 O             1 RES     
    3872 O           23.7810   146.8420     3.9060 O             1 RES     
    3873 OS          32.3080   140.5490    13.5250 OS            1 RES     
    3874 Si          14.6130   139.8490    10.8620 Si            1 RES     
    3875 Si           9.0190   104.2510     4.0900 Si            1 RES     
    3876 O           25.1120   114.6520     5.4390 O             1 RES     
    3877 Si          44.0140   136.7140     7.7550 Si            1 RES     
    3878 OS          48.1550   110.7840    12.7930 OS            1 RES     
    3879 OS          14.5800   110.1050    13.9600 OS            1 RES     
    3880 OS          30.2540   115.4520    12.2440 OS            1 RES     
    3881 O           15.1430   139.4530     9.4470 O             1 RES     
    3882 Si          26.1430   103.1790     5.5820 Si            1 RES     
    3883 O            0.4530   103.1480     6.2690 O             1 RES     
    3884 O           46.8350   149.3910    10.9860 O             1 RES     
    3885 O            4.0590   136.5990     8.4880 O             1 RES     
    3886 Si          21.9700   114.8470     4.0010 Si            1 RES     
    3887 Si           5.4830   121.8870    10.9520 Si            1 RES     
    3888 O           12.9610   116.0130    12.0790 O             1 RES     
    3889 Si          18.5110   145.7810    11.1700 Si            1 RES     
    3890 OS          26.1120   106.5300    13.1560 OS            1 RES     
    3891 O           28.9550   111.6580     3.8450 O             1 RES     
    3892 O           16.8570   104.4800     9.5660 O             1 RES     
    3893 O           12.2070   131.3180     6.4880 O             1 RES     
    3894 Si           3.6610   147.9890     3.2660 Si            1 RES     
    3895 O            2.3810   138.3960     9.2630 O             1 RES     
    3896 O           16.4770   143.0330     5.4360 O             1 RES     
    3897 O            8.4010   137.8400     9.9930 O             1 RES     
    3898 Si          35.2360   126.0960     9.8200 Si            1 RES     
    3899 OS          41.6370   148.2940    12.0470 OS            1 RES     
    3900 O           28.3920   145.5220     9.3080 O             1 RES     
    3901 Si           8.7650   109.9060     8.6400 Si            1 RES     
    3902 Si          31.1860   140.2060     4.6190 Si            1 RES     
    3903 O           33.9620   109.7730    11.3540 O             1 RES     
    3904 Si          29.9290   138.9810    11.4220 Si            1 RES     
    3905 O           46.4470   145.4640     8.5700 O             1 RES     
    3906 O            3.8460   149.6770    12.4230 O             1 RES     
    3907 O           11.9350   126.3070    10.1220 O             1 RES     
    3908 O           34.7310   137.0780     7.2970 O             1 RES     
    3909 O            9.9940   132.7270     3.7510 O             1 RES     
    3910 OS          45.7050   112.9940    13.9360 OS            1 RES     
    3911 Si          18.4620   119.7870     7.3990 Si            1 RES     
    3912 O           11.2240   135.5340     6.4810 O             1 RES     
    3913 O           43.9110   110.6470     6.2750 O             1 RES     
    3914 O           45.5200   136.9650     7.4450 O             1 RES     
    3915 O           42.3600   147.1630     6.9220 O             1 RES     
    3916 OS          21.7830   113.9840    12.3470 OS            1 RES     
    3917 Si          38.2540   143.6100     8.9210 Si            1 RES     
    3918 OS          17.5590   127.3140    12.9220 OS            1 RES     
    3919 O            3.3950   111.3600    11.7150 O             1 RES     
    3920 Si           6.1610   104.5190     2.9570 Si            1 RES     
    3921 Si          35.9990   104.7990     5.4630 Si            1 RES     
    3922 O           40.4460   108.8940    11.2490 O             1 RES     
    3923 Si          36.3780   108.7640     9.1110 Si            1 RES     
    3924 Si           1.8180   127.6390    12.3530 Si            1 RES     
    3925 OS          47.8010   137.1470    12.8070 OS            1 RES     
    3926 O           48.1120   147.4380    10.4120 O             1 RES     
    3927 O           39.5130   120.8610     8.2070 O             1 RES     
    3928 O            7.0610   103.7190    13.2660 O             1 RES     
    3929 O           26.4280   134.1630    11.4740 O             1 RES     
    3930 Si          33.3770   103.5300     3.4640 Si            1 RES     
    3931 O           16.2090   128.5900     2.5190 O             1 RES     
    3932 O           36.1180   148.2970     8.6890 O             1 RES     
    3933 O           46.7490   117.9500     3.0500 O             1 RES     
    3934 O           41.6860   142.9810     6.6740 O             1 RES     
    3935 O           37.4760   112.5040     5.3120 O             1 RES     
    3936 Si          24.7900   113.2300     6.2040 Si            1 RES     
    3937 OS          38.1530   104.6200    13.3710 OS            1 RES     
    3938 O            9.6770   132.6350    11.3050 O             1 RES     
    3939 Si          33.9690   122.8690     3.4780 Si            1 RES     
    3940 O           43.9820   137.9620     9.3120 O             1 RES     
    3941 Si          12.2740   134.9140     7.4100 Si            1 RES     
    3942 O           25.0010   118.4920    11.1670 O             1 RES     
    3943 O            2.7600   124.2130    10.4020 O             1 RES     
    3944 O           42.9580   126.1660    11.8200 O             1 RES     
    3945 O           45.1440   114.4450    11.7480 O             1 RES     
    3946 Si          40.0110   139.8830     8.6920 Si            1 RES     
    3947 OS           4.8870   130.6080    12.7110 OS            1 RES     
    3948 O           36.7400   129.8300     5.2550 O             1 RES     
    3949 Si          16.6150   144.7830     8.8650 Si            1 RES     
    3950 O           14.1100   111.8590     9.6930 O             1 RES     
    3951 O            2.0850   144.1560     6.4310 O             1 RES     
    3952 O           39.2760   149.2800    12.1610 O             1 RES     
    3953 Si          39.0470   145.4520    11.2560 Si            1 RES     
    3954 Si          46.1120   142.6170    10.5030 Si            1 RES     
    3955 Si          15.9470   102.3680     7.5480 Si            1 RES     
    3956 O            9.2800   123.5000     7.5290 O             1 RES     
    3957 OS          40.7000   134.4120    12.2590 OS            1 RES     
    3958 OS          37.3970   149.2820    10.3440 OS            1 RES     
    3959 O           27.2990   109.9210     4.3170 O             1 RES     
    3960 O           47.5000   117.2100     9.6140 O             1 RES     
    3961 O           10.7770   140.0520     8.7900 O             1 RES     
    3962 Si          24.9320   124.8970     5.9010 Si            1 RES     
    3963 Si          46.2280   136.8130    12.7060 Si            1 RES     
    3964 OS          17.5710   107.1020    13.6460 OS            1 RES     
    3965 O            3.9580   131.7320     3.9260 O             1 RES     
    3966 O           30.0340   148.1820     5.4990 O             1 RES     
    3967 Si           2.3960   100.3410    12.1610 Si            1 RES     
    3968 Si           1.3740   124.8670    10.7920 Si            1 RES     
    3969 O           32.8560   114.0160     5.4360 O             1 RES     
    3970 O            5.0360   132.8140    11.2680 O             1 RES     
    3971 O            4.3950   101.0660     5.6080 O             1 RES     
    3972 Si          11.4700   114.6680     9.6650 Si            1 RES     
    3973 O           45.4260   112.4360     7.7160 O             1 RES     
    3974 Si          39.5160   133.9090    11.3150 Si            1 RES     
    3975 O           42.7260   145.9040    11.9400 O             1 RES     
    3976 OS          21.7830   105.7500    13.3060 OS            1 RES     
    3977 O            3.4140   140.7410     9.3500 O             1 RES     
    3978 O           34.3490   132.3610     3.7950 O             1 RES     
    3979 OS           4.0670   145.7170    13.0380 OS            1 RES     
    3980 O           16.5320   125.6030    11.2150 O             1 RES     
    3981 O            8.3430   140.2150     9.8420 O             1 RES     
    3982 O            4.0360   125.3720     8.7120 O             1 RES     
    3983 O           30.6800   145.8030     9.3590 O             1 RES     
    3984 O           10.0900   110.7120     6.1550 O             1 RES     
    3985 O           19.1940   117.1920     5.2050 O             1 RES     
    3986 O           37.1160   148.2080    12.3700 O             1 RES     
    3987 Si          11.3670   116.3290    12.1810 Si            1 RES     
    3988 O           35.5170   149.9290     1.5800 O             1 RES     
    3989 O            3.1960   113.4610     3.7560 O             1 RES     
    3990 O            4.0060   130.3250     6.5690 O             1 RES     
    3991 O           39.3020   100.3220     2.5230 O             1 RES     
    3992 Si          39.5480   134.3190     5.9030 Si            1 RES     
    3993 Si          19.5940   118.6870     4.7920 Si            1 RES     
    3994 OS          15.5400   111.8900    12.5810 OS            1 RES     
    3995 Si           3.2760   122.0430     6.8940 Si            1 RES     
    3996 Si          16.4430   103.1290    10.4140 Si            1 RES     
    3997 O           34.7450   120.4650     6.8190 O             1 RES     
    3998 O           42.7410   149.4860     7.9210 O             1 RES     
    3999 O            9.6600   125.8890     8.2980 O             1 RES     
    4000 Si          14.1900   140.4600     5.9330 Si            1 RES     
    4001 O            2.1890   107.9920     5.7940 O             1 RES     
    4002 OS          16.4940   121.9160    12.0070 OS            1 RES     
    4003 OS           8.7360   123.7110    12.1360 OS            1 RES     
    4004 O            9.6740   103.0890     7.3500 O             1 RES     
    4005 Si          45.4850   102.3080     9.1260 Si            1 RES     
    4006 O           34.5530   101.7420     7.1130 O             1 RES     
    4007 Si          47.6950   146.8240     4.1620 Si            1 RES     
    4008 O            9.0940   131.8780     9.0570 O             1 RES     
    4009 O           32.8540   111.6640    10.2560 O             1 RES     
    4010 O           39.9370   112.6720     5.1830 O             1 RES     
    4011 O           42.7870   107.5880     3.9020 O             1 RES     
    4012 OS          41.5110   144.6970    13.8950 OS            1 RES     
    4013 Si           3.5110   126.4870     7.6910 Si            1 RES     
    4014 O           24.8100   140.6180     2.1530 O             1 RES     
    4015 OS          28.0830   119.4000    14.1250 OS            1 RES     
    4016 Si          45.3360   148.4560     5.2530 Si            1 RES     
    4017 O           15.0890   116.2570    10.7830 O             1 RES     
    4018 O            1.7470   125.2300     4.6450 O             1 RES     
    4019 O           20.2430   149.6870    11.9420 O             1 RES     
    4020 Si           1.9550   142.6290     6.7790 Si            1 RES     
    4021 Si          21.5380   103.5220     7.4470 Si            1 RES     
    4022 O           17.2980   145.0130    10.2930 O             1 RES     
    4023 O           14.1450   139.2150     6.8920 O             1 RES     
    4024 O           10.4990   119.3050     7.6740 O             1 RES     
    4025 Si          14.9070   107.2060     6.9330 Si            1 RES     
    4026 Si          28.6810   125.7310     9.3460 Si            1 RES     
    4027 O           35.3300   130.3750     2.9760 O             1 RES     
    4028 Si           8.6830   143.2050     7.6990 Si            1 RES     
    4029 O           14.0870   129.7210     3.3030 O             1 RES     
    4030 O           33.0820   122.8120    10.2330 O             1 RES     
    4031 O           47.5190   136.2220     3.8790 O             1 RES     
    4032 Si          28.5250   106.5820    10.1990 Si            1 RES     
    4033 Si          47.4500   117.4220     4.3660 Si            1 RES     
    4034 O           28.1610   115.8470     6.3670 O             1 RES     
    4035 OS           1.1650   122.8170    14.2730 OS            1 RES     
    4036 O           44.8110   100.9100     8.5730 O             1 RES     
    4037 O           18.5750   127.3960     6.6910 O             1 RES     
    4038 O           26.1090   103.3020     3.9990 O             1 RES     
    4039 Si          42.6060   134.7230     9.4340 Si            1 RES     
    4040 Si          45.3720   110.9610     7.0310 Si            1 RES     
    4041 O           22.5860   129.5690     3.9380 O             1 RES     
    4042 O           46.9910   108.4630    12.3190 O             1 RES     
    4043 Si          40.2970   131.3540     6.4800 Si            1 RES     
    4044 Si           6.0960   133.9830    10.8440 Si            1 RES     
    4045 O           12.7440   130.9830     8.8940 O             1 RES     
    4046 OS          46.1210   101.2430    12.8700 OS            1 RES     
    4047 O           26.2930   130.5420     3.2220 O             1 RES     
    4048 O            7.8820   124.5560     9.3200 O             1 RES     
    4049 O           27.0360   122.2950     8.3600 O             1 RES     
    4050 O           25.2950   100.7040    10.3780 O             1 RES     
    4051 Si          24.9280   117.5040     7.8380 Si            1 RES     
    4052 O           48.6180   104.1440    10.7340 O             1 RES     
    4053 O           25.6520   128.5460     7.8160 O             1 RES     
    4054 O           19.8470   124.9840     6.4890 O             1 RES     
    4055 Si          41.6370   112.8030    10.9200 Si            1 RES     
    4056 Si          35.3520   101.3890    12.1150 Si            1 RES     
    4057 Si          46.8970   137.7350     7.7620 Si            1 RES     
    4058 O           26.2440   107.4510     2.2640 O             1 RES     
    4059 O            5.3780   135.8640     6.8210 O             1 RES     
    4060 O           45.1740   127.8150     2.8680 O             1 RES     
    4061 Si          43.8770   127.3760    11.5510 Si            1 RES     
    4062 Si          12.5270   108.5340     8.2720 Si            1 RES     
    4063 O            3.5620   128.0480     7.7900 O             1 RES     
    4064 O            5.2150   122.8920     2.7460 O             1 RES     
    4065 O           46.5290   122.0670     9.2400 O             1 RES     
    4066 Si          13.1480   115.3560     5.0550 Si            1 RES     
    4067 O           24.9450   129.7810    11.9010 O             1 RES     
    4068 O            0.0590   117.7840     9.3110 O             1 RES     
    4069 O           19.1170   113.8090     9.2550 O             1 RES     
    4070 O            4.0670   137.3420     4.9070 O             1 RES     
    4071 O           36.9140   110.2500     9.4460 O             1 RES     
    4072 O           35.5640   106.3480     5.5660 O             1 RES     
    4073 OS          29.1860   138.1350    12.6570 OS            1 RES     
    4074 Si          31.8730   137.3300     3.6020 Si            1 RES     
    4075 O           42.7740   103.8650     8.6890 O             1 RES     
    4076 O           49.9610   133.5230     2.2830 O             1 RES     
    4077 O           36.2550   126.7060     8.7730 O             1 RES     
    4078 Si          14.0130   115.1700    11.1740 Si            1 RES     
    4079 O            3.7870   116.7630    12.8830 O             1 RES     
    4080 Si          48.5450   105.0490    12.0960 Si            1 RES     
    4081 O           40.6880   122.2130     4.0540 O             1 RES     
    4082 O           14.5790   132.1970     7.4600 O             1 RES     
    4083 O           40.8770   138.5600     8.8240 O             1 RES     
    4084 O           24.8340   143.0310     2.6420 O             1 RES     
    4085 Si          30.0510   119.2360     5.0320 Si            1 RES     
    4086 O           32.2550   108.4950     2.8570 O             1 RES     
    4087 O           45.1300   132.9420     1.8010 O             1 RES     
    4088 Si           6.2410   143.4290     9.5200 Si            1 RES     
    4089 Si          26.1320   127.2990     4.2450 Si            1 RES     
    4090 O           39.7030   143.2250     8.3650 O             1 RES     
    4091 O            8.5980   146.3720     2.2240 O             1 RES     
    4092 Si          34.6490   103.1510     7.7220 Si            1 RES     
    4093 O           15.1550   111.3100     5.9300 O             1 RES     
    4094 Si           5.3720   110.0700     4.4590 Si            1 RES     
    4095 O           42.3490   107.4910    12.1660 O             1 RES     
    4096 O           15.4210   140.4660    12.0290 O             1 RES     
    4097 O            5.0060   104.4480     4.0530 O             1 RES     
    4098 O           19.4280   145.2850     5.8050 O             1 RES     
    4099 O           44.4440   146.5930    10.0370 O             1 RES     
    4100 O           49.3310   132.3570     9.5320 O             1 RES     
    4101 O           30.1120   126.0840     8.9200 O             1 RES     
    4102 O           10.4160   101.0990     2.8170 O             1 RES     
    4103 O            5.6430   134.8800     9.6260 O             1 RES     
    4104 O           10.6130   129.6900     9.5080 O             1 RES     
    4105 O           38.9430   130.5190     6.3560 O             1 RES     
    4106 O           10.5100   108.1880     5.4640 O             1 RES     
    4107 O           18.0080   149.7870    12.4920 O             1 RES     
    4108 O           29.9750   118.5390     6.4630 O             1 RES     
    4109 Si          43.5010   106.3350    12.2980 Si            1 RES     
    4110 O           31.0460   133.8030     5.5130 O             1 RES     
    4111 O            8.9270   111.8520    11.1040 O             1 RES     
    4112 O           22.6540   100.6510     6.3860 O             1 RES     
    4113 O           45.1230   132.2190     9.7350 O             1 RES     
    4114 O           15.4250   108.6330     6.4840 O             1 RES     
    4115 O           24.3040   133.2740     3.2250 O             1 RES     
    4116 O           49.8890   113.0660     8.7600 O             1 RES     
    4117 Si           8.1590   111.0630     5.8820 Si            1 RES     
    4118 Si           9.7230   106.6800    12.0750 Si            1 RES     
    4119 Si          28.4790   108.4120     7.7260 Si            1 RES     
    4120 Si           0.5120   107.5370    12.0020 Si            1 RES     
    4121 O            9.6710   105.6550     4.5980 O             1 RES     
    4122 O            0.6430   146.6160     2.2410 O             1 RES     
    4123 O           47.4550   113.8010     8.3070 O             1 RES     
    4124 O           18.8750   125.6890    11.5620 O             1 RES     
    4125 Si           9.6420   129.2860     3.6580 Si            1 RES     
    4126 O            6.7420   127.7270     7.4510 O             1 RES     
    4127 Si           7.3690   111.2960    10.8940 Si            1 RES     
    4128 Si          30.6730   132.5360     9.5370 Si            1 RES     
    4129 O           12.3410   133.3180     7.6750 O             1 RES     
    4130 Si           5.5320   136.0130     8.4250 Si            1 RES     
    4131 Si          23.0290   143.0570    11.1760 Si            1 RES     
    4132 Si          40.9590   108.1710     7.5530 Si            1 RES     
    4133 OS          19.6480   148.2890    13.7740 OS            1 RES     
    4134 O           34.4150   122.6970     5.0520 O             1 RES     
    4135 O           21.5930   103.0260     9.0560 O             1 RES     
    4136 Si          35.2580   114.0110    11.5060 Si            1 RES     
    4137 O           15.8700   132.0780     9.6110 O             1 RES     
    4138 O           27.1660   118.1990     2.9840 O             1 RES     
    4139 O            2.9420   129.6550     4.5650 O             1 RES     
    4140 Si          41.6730   143.7280     5.2710 Si            1 RES     
    4141 O           39.1920   100.5770     7.9150 O             1 RES     
    4142 O           12.7510   119.8360     9.1320 O             1 RES     
    4143 O           21.9460   142.2760    10.3200 O             1 RES     
    4144 O           14.1980   138.2730     2.9000 O             1 RES     
    4145 O           29.3360   132.1020     8.8840 O             1 RES     
    4146 O           49.7930   110.4860     8.6050 O             1 RES     
    4147 O           26.2920   112.6820     9.6340 O             1 RES     
    4148 O            9.8200   125.0990    10.5220 O             1 RES     
    4149 Si          27.4390   119.6000     3.5680 Si            1 RES     
    4150 O            6.6230   114.8530     6.6910 O             1 RES     
    4151 O            8.6230   149.0540    10.4420 O             1 RES     
    4152 O           44.8180   126.8060    10.4470 O             1 RES     
    4153 O           11.7380   109.5000     1.6330 O             1 RES     
    4154 O           34.5170   124.8560     9.2050 O             1 RES     
    4155 O           20.2360   109.1000    10.6340 O             1 RES     
    4156 OS          32.3420   121.8730    12.6260 OS            1 RES     
    4157 Si          25.7150   141.7100     2.8710 Si            1 RES     
    4158 O           34.9960   119.4610     9.2060 O             1 RES     
    4159 Si          41.4990   119.5180    11.1150 Si            1 RES     
    4160 Si          15.2730   110.2900    12.5260 Si            1 RES     
    4161 O           36.2120   118.2560     7.4380 O             1 RES     
    4162 O           29.3970   136.5730     9.2700 O             1 RES     
    4163 O            5.0300   123.2810    10.2570 O             1 RES     
    4164 Si           0.3920   142.2210     4.1890 Si            1 RES     
    4165 O            2.2260   126.4020     2.4270 O             1 RES     
    4166 O           49.4230   118.8260    12.6940 O             1 RES     
    4167 O           27.1160   127.9850     5.1480 O             1 RES     
    4168 Si           8.2650   140.9430     4.4180 Si            1 RES     
    4169 O           41.1300   122.0980     6.6650 O             1 RES     
    4170 O           45.5570   131.9600     4.3400 O             1 RES     
    4171 O            0.1660   119.6860     6.1490 O             1 RES     
    4172 Si          33.2720   108.2920    11.3850 Si            1 RES     
    4173 O           22.7000   100.6170     4.0170 O             1 RES     
    4174 O           13.0960   147.7250     5.9260 O             1 RES     
    4175 Si          22.7790   101.7000     2.8520 Si            1 RES     
    4176 O           16.3630   113.3470     5.6630 O             1 RES     
    4177 O           30.9870   148.2450    10.0420 O             1 RES     
    4178 O           37.2390   149.7590     3.5030 O             1 RES     
    4179 Si          30.8900   116.7310     3.3720 Si            1 RES     
    4180 O           26.4990   144.3450     9.2110 O             1 RES     
    4181 O           49.2220   126.2600     7.9750 O             1 RES     
    4182 O            3.4010   139.1840    11.4160 O             1 RES     
    4183 O           33.9070   131.6450     7.3760 O             1 RES     
    4184 O           43.4510   115.8270    10.1300 O             1 RES     
    4185 Si          46.0430   125.0580     5.6030 Si            1 RES     
    4186 O            1.8810   126.1950     7.7000 O             1 RES     
    4187 O           17.3560   102.2180    11.3970 O             1 RES     
    4188 O            7.1550   117.3080     4.0380 O             1 RES     
    4189 Si          42.4350   110.2010     5.9260 Si            1 RES     
    4190 Si          40.6900   103.0210    11.3890 Si            1 RES     
    4191 O           19.9280   129.8800    10.9250 O             1 RES     
    4192 O           19.4570   120.9430     7.8900 O             1 RES     
    4193 O           10.7040   113.2600     9.7220 O             1 RES     
    4194 Si           0.4770   101.6020     5.9420 Si            1 RES     
    4195 O            9.4100   101.3120    10.7100 O             1 RES     
    4196 Si          18.7360   117.6360     9.5480 Si            1 RES     
    4197 O            5.7520   147.8330    12.9800 O             1 RES     
    4198 O           19.8340   107.1440     8.9810 O             1 RES     
    4199 Si          18.1230   108.5540     3.6600 Si            1 RES     
    4200 Si           8.9940   133.1040    10.0430 Si            1 RES     
    4201 O           35.6350   137.2760     4.9160 O             1 RES     
    4202 O           43.9320   130.7370     6.0400 O             1 RES     
    4203 Si          10.3410   136.8300     3.1460 Si            1 RES     
    4204 OS          30.0060   134.1070    13.8750 OS            1 RES     
    4205 OS          33.7480   133.1240    13.3250 OS            1 RES     
    4206 Si           7.3310   143.7630     4.9050 Si            1 RES     
    4207 O           12.4480   123.4040     3.5910 O             1 RES     
    4208 O           46.8580   141.0190     2.4920 O             1 RES     
    4209 Si          11.1820   120.0760     8.8680 Si            1 RES     
    4210 O           32.3270   136.7830     2.1510 O             1 RES     
    4211 Si          26.8970   132.7770    12.0530 Si            1 RES     
    4212 O           31.1770   138.7570     3.8720 O             1 RES     
    4213 O           42.7610   136.9040     6.8720 O             1 RES     
    4214 O            0.1790   145.8030    11.0080 O             1 RES     
    4215 O           14.9690   139.8680     4.7060 O             1 RES     
    4216 O            9.7750   130.5060     2.5650 O             1 RES     
    4217 Si          26.2080   135.7160    11.4330 Si            1 RES     
    4218 O           33.8200   101.8110    12.2470 O             1 RES     
    4219 O           32.2410   124.6310     8.4590 O             1 RES     
    4220 O           44.9250   106.9980    12.2900 O             1 RES     
    4221 Si          10.0470   106.9750     9.0140 Si            1 RES     
    4222 O            4.9290   113.9990     8.3470 O             1 RES     
    4223 Si          23.0970   134.0080     6.9800 Si            1 RES     
    4224 O           35.3680   149.2480     6.6070 O             1 RES     
    4225 O           38.6330   103.1870     8.2330 O             1 RES     
    4226 O            9.6790   138.1050     2.4130 O             1 RES     
    4227 O           24.3640   125.9410     9.8980 O             1 RES     
    4228 Si           1.3860   104.4330     6.3760 Si            1 RES     
    4229 O           36.0720   125.4030    10.9870 O             1 RES     
    4230 Si          33.3970   100.4560     4.1020 Si            1 RES     
    4231 O           47.7770   145.4010     4.5940 O             1 RES     
    4232 O           49.6460   100.9140     7.0600 O             1 RES     
    4233 Si          49.7490   142.7510     8.8430 Si            1 RES     
    4234 O           21.0710   105.0660     7.7670 O             1 RES     
    4235 Si          17.6200   108.2770    12.5210 Si            1 RES     
    4236 O           23.8990   108.0890     8.4830 O             1 RES     
    4237 O           44.9940   106.8110     5.0230 O             1 RES     
    4238 O           38.3840   127.7090     9.6910 O             1 RES     
    4239 Si           2.3000   149.5910     9.1770 Si            1 RES     
    4240 O           11.0760   117.9080    12.0650 O             1 RES     
    4241 Si           2.4870   145.5200     5.7490 Si            1 RES     
    4242 O            5.1070   113.1130     2.0220 O             1 RES     
    4243 O           17.3130   117.3870    10.0950 O             1 RES     
    4244 O           38.8030   118.8680     3.1010 O             1 RES     
    4245 O            6.2230   105.3790     1.6200 O             1 RES     
    4246 O           33.8930   137.3990    11.2720 O             1 RES     
    4247 OS          35.5880   137.9490    13.8270 OS            1 RES     
    4248 O           49.2590   131.1290     2.4940 O             1 RES     
    4249 Si          30.0550   120.4620     9.8690 Si            1 RES     
    4250 O            6.6910   121.9270     4.9560 O             1 RES     
    4251 O           17.7340   121.6430     3.5230 O             1 RES     
    4252 O           19.7000   145.8050    10.1940 O             1 RES     
    4253 O           21.0350   110.2870     8.9720 O             1 RES     
    4254 Si           0.3040   111.6260     9.5100 Si            1 RES     
    4255 Si          47.8920   139.8850     5.9730 Si            1 RES     
    4256 Si          25.8660   144.0270    10.5700 Si            1 RES     
    4257 O            3.1940   100.0020     7.9500 O             1 RES     
    4258 O           33.6470   134.4260     4.8550 O             1 RES     
    4259 Si          30.7270   142.4020     8.4770 Si            1 RES     
    4260 Si          34.7700   137.8690     3.8180 Si            1 RES     
    4261 O           29.2810   120.1280    11.1720 O             1 RES     
    4262 O           15.4150   107.7660     1.5950 O             1 RES     
    4263 O           18.3850   135.8390     4.7270 O             1 RES     
    4264 Si          45.2900   125.8680     9.3100 Si            1 RES     
    4265 Si          42.5050   122.3130    10.4510 Si            1 RES     
    4266 Si          15.7320   129.5360     3.7050 Si            1 RES     
    4267 Si           9.6690   147.8430     5.4930 Si            1 RES     
    4268 O           12.3740   148.9220     8.1810 O             1 RES     
    4269 O           24.6360   100.9360     7.9300 O             1 RES     
    4270 O           19.8080   103.0050     3.2320 O             1 RES     
    4271 O           35.4430   100.0010    12.9260 O             1 RES     
    4272 O            6.8130   127.9240     9.9120 O             1 RES     
    4273 O           36.6000   138.8690     6.7020 O             1 RES     
    4274 Si          10.1060   119.0830    11.7060 Si            1 RES     
    4275 O           19.5560   115.3870     7.1320 O             1 RES     
    4276 O           13.4780   147.4240     3.3610 O             1 RES     
    4277 OS          33.1620   111.7520    13.1050 OS            1 RES     
    4278 O           10.6930   126.6800     1.2410 O             1 RES     
    4279 O           22.8730   122.8310    11.1670 O             1 RES     
    4280 O           11.8470   121.1590     4.2940 O             1 RES     
    4281 Si          21.9760   112.3940    12.3550 Si            1 RES     
    4282 O           12.8560   109.6200     9.3420 O             1 RES     
    4283 Si          15.5080   138.7700     3.6850 Si            1 RES     
    4284 O           37.2780   142.6790     9.7680 O             1 RES     
    4285 O            8.5470   110.3990     4.4330 O             1 RES     
    4286 O            4.3780   146.6300     8.9120 O             1 RES     
    4287 O           29.9050   145.6210     6.1860 O             1 RES     
    4288 Si          33.6080   114.0500     6.7690 Si            1 RES     
    4289 O            6.9040   114.7780     2.4800 O             1 RES     
    4290 O           17.7290   146.9900     5.8550 O             1 RES     
    4291 O           13.0630   102.0570     5.8520 O             1 RES     
    4292 O           14.9550   120.6690     8.2220 O             1 RES     
    4293 O           26.1070   141.4050     4.3750 O             1 RES     
    4294 O           26.7350   126.8440     2.9100 O             1 RES     
    4295 O           30.0560   102.9350     5.7890 O             1 RES     
    4296 O           45.2980   121.2120     4.8160 O             1 RES     
    4297 O            9.9770   110.8910     9.1250 O             1 RES     
    4298 Si          15.7720   132.3240    11.1840 Si            1 RES     
    4299 O           25.9570   132.4380     4.9530 O             1 RES     
    4300 O           49.6260   138.0500     4.0950 O             1 RES     
    4301 Si          27.7560   122.5190     3.0090 Si            1 RES     
    4302 O            6.1310   118.0340    12.6980 O             1 RES     
    4303 Si          29.6580   112.5070     4.9570 Si            1 RES     
    4304 Si          20.6900   103.4160     4.4270 Si            1 RES     
    4305 O           18.0140   137.6140     6.4480 O             1 RES     
    4306 Si           7.4400   149.6480     6.7860 Si            1 RES     
    4307 O           11.4600   142.1930     3.2080 O             1 RES     
    4308 O            7.4840   142.2850     4.2520 O             1 RES     
    4309 O           20.4090   141.3470     8.5420 O             1 RES     
    4310 O           27.7690   115.8050     3.7780 O             1 RES     
    4311 O           20.8050   122.5490     6.6200 O             1 RES     
    4312 O           47.1940   109.1690     3.9050 O             1 RES     
    4313 OS          43.1990   132.2580    11.8910 OS            1 RES     
    4314 OS           2.5250   101.7930    12.7490 OS            1 RES     
    4315 O           15.8720   131.1240     3.5680 O             1 RES     
    4316 O           36.9670   123.0980    12.0190 O             1 RES     
    4317 O           24.6860   105.7720     8.6550 O             1 RES     
    4318 Si           3.3320   117.0320     2.8190 Si            1 RES     
    4319 O           46.1960   119.5610     9.2260 O             1 RES     
    4320 O            4.2990   111.6510     9.3740 O             1 RES     
    4321 Si          43.9040   120.4480     4.8120 Si            1 RES     
    4322 O           24.8680   135.8760    12.2940 O             1 RES     
    4323 O           23.6580   118.9010     3.6840 O             1 RES     
    4324 Si          14.1220   137.2970    12.4430 Si            1 RES     
    4325 Si          48.3240   103.2150     9.4960 Si            1 RES     
    4326 O            8.7600   145.0380    12.2370 O             1 RES     
    4327 Si          35.3480   134.2110     9.5120 Si            1 RES     
    4328 Si          47.0210   100.0510    12.4420 Si            1 RES     
    4329 O           19.9310   133.8980     5.2210 O             1 RES     
    4330 O            7.6010   134.5360     2.5650 O             1 RES     
    4331 O           15.1770   144.2300     2.7320 O             1 RES     
    4332 O           41.9330   137.9030     4.7360 O             1 RES     
    4333 Si           6.2890   117.4690     9.5750 Si            1 RES     
    4334 OS          25.4360   111.1810    11.7760 OS            1 RES     
    4335 O           10.2860   101.4390     5.2360 O             1 RES     
    4336 O           23.4720   143.8750     7.4750 O             1 RES     
    4337 O            6.0160   144.9060     9.1190 O             1 RES     
    4338 Si          12.5860   109.9290     3.0050 Si            1 RES     
    4339 O            2.3750   115.4810     5.2860 O             1 RES     
    4340 Si           5.0570   113.0090     9.6470 Si            1 RES     
    4341 O           18.5420   105.3050     7.9260 O             1 RES     
    4342 O           48.6410   143.7890     8.4790 O             1 RES     
    4343 O           11.8310   130.9040    11.1600 O             1 RES     
    4344 O           35.0670   113.4710     6.3520 O             1 RES     
    4345 Si          42.0050   138.9920     3.5840 Si            1 RES     
    4346 O            8.0640   140.0100     3.0870 O             1 RES     
    4347 Si          28.7100   137.9400     8.8920 Si            1 RES     
    4348 Si           1.4570   107.3840     7.0950 Si            1 RES     
    4349 O           19.5950   131.6930     6.4870 O             1 RES     
    4350 Si          20.2910   110.6330    10.3250 Si            1 RES     
    4351 O           49.4830   109.5720     4.3120 O             1 RES     
    4352 Si          49.2360   130.9390    10.2300 Si            1 RES     
    4353 O           29.8460   141.2250     8.0550 O             1 RES     
    4354 Si          19.0220   125.9820     7.4110 Si            1 RES     
    4355 O           23.4690   113.3370     9.5400 O             1 RES     
    4356 Si          23.9240   124.9980     8.7160 Si            1 RES     
    4357 OS          33.2710   137.9530    13.2690 OS            1 RES     
    4358 OS          22.4530   121.1830    13.0020 OS            1 RES     
    4359 O           25.8540   125.8150     5.0220 O             1 RES     
    4360 O           40.4720   131.4740     8.0220 O             1 RES     
    4361 Si          49.0790   109.2880     7.9830 Si            1 RES     
    4362 OS           6.2560   106.2770    13.5190 OS            1 RES     
    4363 Si          34.2060   140.7980     4.4520 Si            1 RES     
    4364 O           38.6100   137.7160     3.1690 O             1 RES     
    4365 Si           7.0770   120.2490     8.8390 Si            1 RES     
    4366 Si          48.9090   146.5840    11.4290 Si            1 RES     
    4367 O           38.3370   126.5730     2.7100 O             1 RES     
    4368 Si          34.5520   109.9310     7.0270 Si            1 RES     
    4369 Si          20.0360   131.2220    10.1190 Si            1 RES     
    4370 O            2.8930   122.2920     2.5400 O             1 RES     
    4371 Si          27.6670   116.0710     7.8400 Si            1 RES     
    4372 O           28.8060   113.8260     5.0430 O             1 RES     
    4373 Si          24.8180   112.7050    10.9700 Si            1 RES     
    4374 Si          48.9160   133.1910     8.2340 Si            1 RES     
    4375 Si          19.3220   138.0950    12.5930 Si            1 RES     
    4376 Si           1.9380   135.8990    11.6940 Si            1 RES     
    4377 O           45.7460   137.2740    11.2740 O             1 RES     
    4378 O           41.7790   130.2140    12.0810 O             1 RES     
    4379 OS           9.6630   130.5690    12.2770 OS            1 RES     
    4380 Si          19.9030   114.9890     8.5670 Si            1 RES     
    4381 O           25.7710   104.4830     6.4720 O             1 RES     
    4382 O           48.9850   132.2290     4.6010 O             1 RES     
    4383 Si          37.7750   139.8480     6.4840 Si            1 RES     
    4384 O            8.1810   101.0180     6.6000 O             1 RES     
    4385 Si          29.5330   133.3360     5.4390 Si            1 RES     
    4386 O           46.2350   123.4670     5.7550 O             1 RES     
    4387 Si          17.2150   128.3100     6.4770 Si            1 RES     
    4388 O           23.2530   107.7300     5.9480 O             1 RES     
    4389 O           20.2230   141.7250     6.0320 O             1 RES     
    4390 Si          14.1060   102.9270    12.3560 Si            1 RES     
    4391 O           19.4250   126.0820     8.9530 O             1 RES     
    4392 Si           7.2080   148.9900     9.7760 Si            1 RES     
    4393 OS          13.0180   137.7460    13.3970 OS            1 RES     
    4394 Si          49.0280   116.6680     9.7360 Si            1 RES     
    4395 O           38.7140   139.7180     7.7470 O             1 RES     
    4396 Si          30.7840   146.8420     5.9520 Si            1 RES     
    4397 O           10.4830   129.8580     4.8470 O             1 RES     
    4398 O           43.3200   141.9460     1.6670 O             1 RES     
    4399 Si          18.2410   112.9120    10.1490 Si            1 RES     
    4400 O           10.7840   143.1810    10.3760 O             1 RES     
    4401 O           42.2450   142.8690     9.2390 O             1 RES     
    4402 Si          28.5000   122.7930     8.3570 Si            1 RES     
    4403 O            4.2370   121.0310    10.8790 O             1 RES     
    4404 O           31.8450   108.4730    11.9550 O             1 RES     
    4405 O           44.0220   122.2570     9.9290 O             1 RES     
    4406 Si          39.1410   149.3650     6.8780 Si            1 RES     
    4407 OS          10.8590   115.6080    13.4570 OS            1 RES     
    4408 Si           5.3790   100.2450     4.5480 Si            1 RES     
    4409 O            8.0870   110.3600     7.2540 O             1 RES     
    4410 O           29.9120   143.3700     9.5960 O             1 RES     
    4411 Si          43.3470   117.3420     9.7490 Si            1 RES     
    4412 O           21.2180   138.5560     4.1250 O             1 RES     
    4413 Si          46.2780   118.2610    10.0530 Si            1 RES     
    4414 O           19.3690   139.5920     7.2420 O             1 RES     
    4415 O           47.3990   113.5140     4.6950 O             1 RES     
    4416 Si          29.8150   133.5000    12.2720 Si            1 RES     
    4417 O           29.7090   104.6080     3.9520 O             1 RES     
    4418 O           24.4790   106.5760     3.9720 O             1 RES     
    4419 Si          45.4830   100.4720     2.9760 Si            1 RES     
    4420 O           42.9600   121.7040     4.9030 O             1 RES     
    4421 O           11.2310   119.0010     2.7990 O             1 RES     
    4422 Si          30.8700   108.1510     3.5780 Si            1 RES     
    4423 Si          10.7240   144.5390     9.5680 Si            1 RES     
    4424 O           44.5910   103.2770    10.0920 O             1 RES     
    4425 OS          40.6880   112.9890    12.1640 OS            1 RES     
    4426 O           23.7620   134.0750     5.5450 O             1 RES     
    4427 O           28.5770   119.4320     4.6810 O             1 RES     
    4428 Si          48.8450   132.4750     3.0400 Si            1 RES     
    4429 O            2.2640   128.7650    11.3580 O             1 RES     
    4430 O            8.7090   118.4050    12.0580 O             1 RES     
    4431 Si          36.6600   129.8290     3.7120 Si            1 RES     
    4432 O           24.6190   121.3980     7.7070 O             1 RES     
    4433 Si          39.7760   127.3710    10.4760 Si            1 RES     
    4434 OS          48.4250   130.9370    11.5870 OS            1 RES     
    4435 O           36.1050   103.2680     8.2910 O             1 RES     
    4436 O           12.4430   101.3040     8.2790 O             1 RES     
    4437 Si          33.4360   116.4340    10.8380 Si            1 RES     
    4438 Si          30.7530   104.1730     5.0870 Si            1 RES     
    4439 O            6.1070   138.0600     5.8620 O             1 RES     
    4440 O           38.6680   136.4770     8.9480 O             1 RES     
    4441 Si          11.1630   109.6020     5.7720 Si            1 RES     
    4442 Si          40.3730   114.4940     8.7190 Si            1 RES     
    4443 O           49.6810   132.3530     7.0340 O             1 RES     
    4444 OS          14.2170   122.5440    13.1760 OS            1 RES     
    4445 O           33.6960   115.5260     7.1440 O             1 RES     
    4446 O           34.6540   149.6130     3.8450 O             1 RES     
    4447 O            0.6790   130.3410     5.3820 O             1 RES     
    4448 Si          19.0850   148.6460    12.2470 Si            1 RES     
    4449 Si          22.1510   102.9900    10.5480 Si            1 RES     
    4450 O           34.7300   136.8210     2.4400 O             1 RES     
    4451 O            2.4910   118.3390     2.9200 O             1 RES     
    4452 Si          46.3210   141.5570     3.9180 Si            1 RES     
    4453 O           35.5150   112.7300     1.6720 O             1 RES     
    4454 O           20.6750   135.7400     9.5880 O             1 RES     
    4455 O           44.1660   126.3470     8.2340 O             1 RES     
    4456 Si           0.5010   125.4290     7.9210 Si            1 RES     
    4457 O           25.2210   139.4880     5.9300 O             1 RES     
    4458 OS          46.3090   135.2350    12.6710 OS            1 RES     
    4459 O           19.1550   107.3510     3.9290 O             1 RES     
    4460 O           24.3180   125.4750     7.2570 O             1 RES     
    4461 O           44.5330   142.4470    10.6150 O             1 RES     
    4462 O           32.8890   137.2560     8.9580 O             1 RES     
    4463 OS           1.4300   107.6250    13.2710 OS            1 RES     
    4464 Si          10.0770   118.5520     6.3800 Si            1 RES     
    4465 Si          15.4110   112.2030     8.9330 Si            1 RES     
    4466 Si          23.5250   122.0570    12.3530 Si            1 RES     
    4467 O           32.6580   129.0700    10.7970 O             1 RES     
    4468 O           18.9780   111.5120    10.0640 O             1 RES     
    4469 OS          25.6930   119.3670    13.4870 OS            1 RES     
    4470 O           42.1530   109.8200     4.4030 O             1 RES     
    4471 OS          31.5440   117.1520    13.7880 OS            1 RES     
    4472 O           18.3820   107.7760    11.1990 O             1 RES     
    4473 Si          19.9120   125.9010    10.4390 Si            1 RES     
    4474 Si          21.2670   139.6860     3.0300 Si            1 RES     
    4475 O           10.3610   144.5950     2.8460 O             1 RES     
    4476 O           19.7400   145.9700     3.4200 O             1 RES     
    4477 Si          18.8430   110.6020     5.8770 Si            1 RES     
    4478 O           11.3070   124.0840     8.6510 O             1 RES     
    4479 OS          21.1670   101.4560    13.9310 OS            1 RES     
    4480 O            8.0970   129.2030     4.1690 O             1 RES     
    4481 O           33.8360   110.8010     2.9710 O             1 RES     
    4482 O            1.1100   120.6060     3.1090 O             1 RES     
    4483 Si          46.7980   120.7630     8.3390 Si            1 RES     
    4484 O           12.9400   138.4750     8.8170 O             1 RES     
    4485 Si          29.6600   144.8580    10.0510 Si            1 RES     
    4486 O           11.2120   115.4640     8.3510 O             1 RES     
    4487 Si          39.6190   102.0610     8.6460 Si            1 RES     
    4488 OS          19.3910   139.6610    12.7410 OS            1 RES     
    4489 O           47.5620   107.4470     5.5700 O             1 RES     
    4490 Si          39.2700   136.7440    10.3940 Si            1 RES     
    4491 O           43.0340   118.0030     8.3440 O             1 RES     
    4492 Si          31.7660   106.8110     9.2550 Si            1 RES     
    4493 O            2.4310   120.7180     6.6690 O             1 RES     
    4494 Si          41.7730   144.6900    12.3280 Si            1 RES     
    4495 O           28.3720   133.8490     7.0030 O             1 RES     
    4496 OS          12.9090   127.3060    12.5350 OS            1 RES     
    4497 Si           4.1990   105.0560    10.8450 Si            1 RES     
    4498 O           39.9540   105.4880     5.1340 O             1 RES     
    4499 Si           2.1290   114.5270     4.0690 Si            1 RES     
    4500 Si          23.8080   108.7590     7.0580 Si            1 RES     
    4501 O           15.0930   100.7780     4.4410 O             1 RES     
    4502 O           34.8950   104.1750     6.5650 O             1 RES     
    4503 OS          34.3920   129.4680    12.5620 OS            1 RES     
    4504 O            3.3300   122.7720     8.3380 O             1 RES     
    4505 O           18.1330   109.5050     2.4330 O             1 RES     
    4506 O           12.2920   144.5360     9.1110 O             1 RES     
    4507 O            6.9350   120.8710     7.3810 O             1 RES     
    4508 Si           8.2440   137.4110     8.3920 Si            1 RES     
    4509 OS          25.8330   115.4440    13.8280 OS            1 RES     
    4510 Si          13.5490   134.3190    11.9030 Si            1 RES     
    4511 Si          19.7110   107.5830    10.4450 Si            1 RES     
    4512 Si          28.6080   115.3720     4.9640 Si            1 RES     
    4513 O           39.9930   104.1720     3.0720 O             1 RES     
    4514 Si          25.0340   132.0940     8.5620 Si            1 RES     
    4515 O           43.6290   133.2150     5.0040 O             1 RES     
    4516 Si          11.3430   141.5240     4.6710 Si            1 RES     
    4517 Si          27.0130   113.1390     8.3330 Si            1 RES     
    4518 Si          48.9600   113.6160     4.9470 Si            1 RES     
    4519 O           26.9220   129.1920     9.9540 O             1 RES     
    4520 Si           6.3490   126.5680     6.4490 Si            1 RES     
    4521 O           26.2180   103.1580    10.9840 O             1 RES     
    4522 O           33.2120   116.3800     9.3320 O             1 RES     
    4523 OS           6.4260   134.7250    12.1420 OS            1 RES     
    4524 O           19.1830   148.4110     2.8480 O             1 RES     
    4525 Si           2.8540   146.5740     8.6460 Si            1 RES     
    4526 O           40.5630   135.5950     5.7950 O             1 RES     
    4527 O           33.2630   110.6490     7.6910 O             1 RES     
    4528 O           44.8170   149.4930     6.4370 O             1 RES     
    4529 O           15.8050   100.2400    11.7960 O             1 RES     
    4530 Si          29.1690   140.2680     6.9740 Si            1 RES     
    4531 O           24.2300   132.0940     9.9360 O             1 RES     
    4532 OS          36.0060   114.0500    12.9430 OS            1 RES     
    4533 Si           4.1400   131.8930    12.2360 Si            1 RES     
    4534 O           13.9600   135.7890    11.8600 O             1 RES     
    4535 O           10.1560   117.0980     6.7790 O             1 RES     
    4536 O           31.4100   138.4720    11.0010 O             1 RES     
    4537 O           16.3110   109.1870    12.1930 O             1 RES     
    4538 O           49.7160   106.1130    11.9960 O             1 RES     
    4539 Si          46.2190   106.7850     6.0930 Si            1 RES     
    4540 O            0.5590   124.8310     9.4250 O             1 RES     
    4541 O           31.0190   112.8100     4.2520 O             1 RES     
    4542 O           42.5120   113.8110     3.3200 O             1 RES     
    4543 O           44.9820   135.0040     3.9540 O             1 RES     
    4544 Si          47.8900   140.3320     9.3920 Si            1 RES     
    4545 OS          40.7650   119.2600    12.4870 OS            1 RES     
    4546 O           49.3310   134.6780     8.0710 O             1 RES     
    4547 O            3.8620   116.9500     1.4150 O             1 RES     
    4548 O            6.5610   109.2230     3.8240 O             1 RES     
    4549 O           34.6850   112.5290    11.3780 O             1 RES     
    4550 Si          24.1050   139.4900    10.4800 Si            1 RES     
    4551 O           33.2570   100.2650     5.6660 O             1 RES     
    4552 O           22.7900   109.8900     7.1890 O             1 RES     
    4553 O           32.6950   135.6060     6.7950 O             1 RES     
    4554 OS           5.9340   128.2390    12.2320 OS            1 RES     
    4555 O           29.9530   115.9870     4.5410 O             1 RES     
    4556 Si          45.8740   113.8780     8.0790 Si            1 RES     
    4557 O           43.1760   124.2670    13.5710 O             1 RES     
    4558 O           34.1640   117.8210    10.9570 O             1 RES     
    4559 Si          49.1160   120.2060    11.9690 Si            1 RES     
    4560 O           15.7400   110.8380     8.1330 O             1 RES     
    4561 Si           5.7440   146.3750     9.5310 Si            1 RES     
    4562 O           38.2740   124.3050    10.1730 O             1 RES     
    4563 O           43.1520   101.7600     6.8610 O             1 RES     
    4564 O           24.4440   116.8930     9.2070 O             1 RES     
    4565 Si          47.1230   144.1060     8.0430 Si            1 RES     
    4566 Si          32.3110   113.8020     4.0170 Si            1 RES     
    4567 O           27.0840   100.2090     8.7460 O             1 RES     
    4568 Si          42.5260   124.7440    12.2770 Si            1 RES     
    4569 O           48.5480   109.5350     6.5140 O             1 RES     
    4570 O           32.0830   105.2400     9.5810 O             1 RES     
    4571 Si          30.7770   106.9750     6.3810 Si            1 RES     
    4572 O           32.6560   117.3460     3.5770 O             1 RES     
    4573 Si          22.9830   146.9500     5.2330 Si            1 RES     
    4574 Si          10.7820   122.8880     7.5800 Si            1 RES     
    4575 O           37.9150   135.4680     2.4360 O             1 RES     
    4576 Si          28.5620   110.2560     3.2980 Si            1 RES     
    4577 O           39.5970   108.4610     6.8880 O             1 RES     
    4578 OS          28.0860   127.0470    12.8440 OS            1 RES     
    4579 Si          12.4540   100.0520     9.2110 Si            1 RES     
    4580 O           46.1330   118.2330    11.5320 O             1 RES     
    4581 O           25.1730   109.3400     6.4250 O             1 RES     
    4582 O           33.3330   144.0330    10.0310 O             1 RES     
    4583 O           41.8390   124.0760     5.2260 O             1 RES     
    4584 Si          37.3600   117.2670     7.9960 Si            1 RES     
    4585 Si          28.2610   128.7300     5.8670 Si            1 RES     
    4586 Si          30.2820   108.1480    12.0040 Si            1 RES     
    4587 O            3.8730   102.3210     7.7110 O             1 RES     
    4588 O            9.8770   149.4910    12.5530 O             1 RES     
    4589 O           14.0220   110.2330    11.5570 O             1 RES     
    4590 Si          22.5800   113.5060     8.3100 Si            1 RES     
    4591 O           49.1180   101.8730     9.3660 O             1 RES     
    4592 Si          48.9490   114.0960     8.0240 Si            1 RES     
    4593 Si          46.8790   103.8960     6.8860 Si            1 RES     
    4594 O           35.4650   132.8620     6.0240 O             1 RES     
    4595 O           27.1510   137.9040     8.7450 O             1 RES     
    4596 Si          17.7620   123.1290     3.9820 Si            1 RES     
    4597 O           26.4320   117.0710     7.9550 O             1 RES     
    4598 OS          23.7870   128.9780    13.9750 OS            1 RES     
    4599 O           14.9030   122.0870     6.1110 O             1 RES     
    4600 O           16.5420   143.3890     8.1150 O             1 RES     
    4601 O            0.9190   122.9880     4.2150 O             1 RES     
    4602 Si          17.7200   113.2740     4.9340 Si            1 RES     
    4603 O            5.1420   142.4580     8.9610 O             1 RES     
    4604 O           34.5830   108.8080     5.8920 O             1 RES     
    4605 O            0.6930   122.6550     1.5560 O             1 RES     
    4606 O           27.9120   144.4110     6.9660 O             1 RES     
    4607 Si          48.7060   112.1020    12.1750 Si            1 RES     
    4608 O           40.0080   104.3710    11.6840 O             1 RES     
    4609 O           18.3840   114.6960     5.1130 O             1 RES     
    4610 O            5.2630   146.3220    11.0400 O             1 RES     
    4611 O           47.8390   121.1070     5.3680 O             1 RES     
    4612 Si          26.3970   115.0080    12.4620 Si            1 RES     
    4613 O           42.3170   126.3140     6.2530 O             1 RES     
    4614 O           25.3350   107.2390    10.7060 O             1 RES     
    4615 Si          31.4810   126.0880     8.1040 Si            1 RES     
    4616 O           49.2420   136.2610     5.9950 O             1 RES     
    4617 O           46.9280   102.4810     9.7930 O             1 RES     
    4618 O           36.5390   130.8970     7.4160 O             1 RES     
    4619 O           32.5680   121.7720     6.0700 O             1 RES     
    4620 O            1.2920   119.6120     8.2810 O             1 RES     
    4621 O           24.1240   112.2340     5.0580 O             1 RES     
    4622 Si           3.8400   103.8590     8.0030 Si            1 RES     
    4623 Si           2.7330   107.5870     9.8720 Si            1 RES     
    4624 O            7.5060   125.9090    11.4880 O             1 RES     
    4625 Si           8.4160   124.7610     7.8710 Si            1 RES     
    4626 OS           1.2370   116.9980    13.2580 OS            1 RES     
    4627 O           14.4070   102.7210     7.7180 O             1 RES     
    4628 O           25.0570   140.4720    11.2770 O             1 RES     
    4629 O           21.3450   131.9200     4.4470 O             1 RES     
    4630 Si          11.9350   139.3810     9.6200 Si            1 RES     
    4631 Si          12.9040   102.3990     7.3500 Si            1 RES     
    4632 O           34.6530   104.1580     4.0910 O             1 RES     
    4633 Si          20.6580   132.5660     5.7020 Si            1 RES     
    4634 O            9.9550   106.7670    10.5320 O             1 RES     
    4635 O            6.3270   149.7210     5.6860 O             1 RES     
    4636 O           28.0230   123.1170     4.3880 O             1 RES     
    4637 Si          13.5940   101.3770     4.4050 Si            1 RES     
    4638 O           26.0460   112.7870     7.0520 O             1 RES     
    4639 Si           8.1330   139.0510    11.0320 Si            1 RES     
    4640 O           29.3400   100.0210     9.9030 O             1 RES     
    4641 OS          20.6290   119.5290    12.8240 OS            1 RES     
    4642 O           46.3110   116.6070     5.0460 O             1 RES     
    4643 O           35.1690   109.0720     8.2150 O             1 RES     
    4644 O           22.7640   136.2150    10.5800 O             1 RES     
    4645 O           21.7240   104.2780    11.3080 O             1 RES     
    4646 O           30.1630   119.2540     8.8420 O             1 RES     
    4647 Si          15.8320   117.6140    10.7090 Si            1 RES     
    4648 O           49.4760   139.6740     5.8810 O             1 RES     
    4649 O           17.5210   113.0590     3.3260 O             1 RES     
    4650 Si          13.2090   143.8680     5.5150 Si            1 RES     
    4651 O           36.7560   128.3420     3.2740 O             1 RES     
    4652 O            0.1930   108.2110     7.5440 O             1 RES     
    4653 O           40.9160   108.9220     9.0310 O             1 RES     
    4654 Si          35.5870   148.5000    12.5270 Si            1 RES     
    4655 OS          32.5230   130.9610    12.8910 OS            1 RES     
    4656 Si          26.3850   130.8540     4.7940 Si            1 RES     
    4657 Si          21.2500   100.8260    12.5180 Si            1 RES     
    4658 O           27.9370   128.7950     7.4510 O             1 RES     
    4659 Si          32.3110   101.7010    11.9900 Si            1 RES     
    4660 O           20.8080   103.1280     6.0350 O             1 RES     
    4661 O           40.3960   119.4270    10.0400 O             1 RES     
    4662 O            8.1620   144.6540     3.9810 O             1 RES     
    4663 O           31.2400   147.1840     7.4300 O             1 RES     
    4664 O           23.7120   102.8520    10.9510 O             1 RES     
    4665 Si          21.9530   149.8670     5.1650 Si            1 RES     
    4666 O           28.4080   132.9060    12.4150 O             1 RES     
    4667 Si           2.6000   139.6720    10.1250 Si            1 RES     
    4668 Si          14.2540   120.1500     9.5970 Si            1 RES     
    4669 Si          33.7110   111.3420    11.5940 Si            1 RES     
    4670 O            2.3200   136.0940    10.2110 O             1 RES     
    4671 Si          33.6340   136.2480     7.9020 Si            1 RES     
    4672 OS          10.7800   105.6640    12.5930 OS            1 RES     
    4673 O           24.1490   143.2310    10.0890 O             1 RES     
    4674 O           43.1390   128.5830    10.8060 O             1 RES     
    4675 O           47.2410   105.9820    11.9870 O             1 RES     
    4676 Si          13.1380   110.7930    10.3950 Si            1 RES     
    4677 O           17.1380   133.0670    11.5390 O             1 RES     
    4678 Si          26.4910   129.8150    11.3490 Si            1 RES     
    4679 O           18.5480   112.0030     5.4170 O             1 RES     
    4680 O           31.5450   135.9710     4.5650 O             1 RES     
    4681 Si           0.7740   147.0520     3.7350 Si            1 RES     
    4682 O            2.5520   107.5940     3.3250 O             1 RES     
    4683 Si          45.9920   132.1560     8.3110 Si            1 RES     
    4684 O           44.3380   146.0900     7.4270 O             1 RES     
    4685 Si          43.0130   129.5670     5.5960 Si            1 RES     
    4686 Si          43.2570   104.0900    10.1390 Si            1 RES     
    4687 Si          27.4220   103.6870    10.1520 Si            1 RES     
    4688 O           17.8060   100.4220     4.2120 O             1 RES     
    4689 O           38.2740   106.0910    11.2360 O             1 RES     
    4690 O            4.5930   139.7580     5.1360 O             1 RES     
    4691 Si          28.9100   101.9180     6.1170 Si            1 RES     
    4692 O           11.7560   106.7500     4.0410 O             1 RES     
    4693 Si          24.7800   137.9610     5.9250 Si            1 RES     
    4694 O            9.0370   108.2650     8.6630 O             1 RES     
    4695 O           24.0770   112.4170     2.5300 O             1 RES     
    4696 O            4.5950   149.1400    14.5170 O             1 RES     
    4697 O           24.6140   121.0140    11.8510 O             1 RES     
    4698 O           22.9150   125.2500     2.6540 O             1 RES     
    4699 O           10.7970   147.4620     6.5500 O             1 RES     
    4700 Si          21.8370   141.1810     9.1520 Si            1 RES     
    4701 O            9.1480   107.9230     3.5290 O             1 RES     
    4702 Si          40.5370   109.9940    10.0790 Si            1 RES     
    4703 O            5.7350   105.3190    11.2190 O             1 RES     
    4704 O            1.9570   138.9090     4.9630 O             1 RES     
    4705 O           39.2870   140.1540    10.0700 O             1 RES     
    4706 O            3.8470   117.0590     4.3490 O             1 RES     
    4707 O           17.8950   141.6230     7.1700 O             1 RES     
    4708 Si          41.1600   132.1080     9.2800 Si            1 RES     
    4709 Si           7.5300   118.7090     4.5500 Si            1 RES     
    4710 O           39.2430   110.7900     9.7430 O             1 RES     
    4711 O           38.8950   114.7690     9.3090 O             1 RES     
    4712 Si          32.5590   137.3940    10.4550 Si            1 RES     
    4713 O           36.1270   146.5280     6.8370 O             1 RES     
    4714 O           35.6710   107.5290     3.6010 O             1 RES     
    4715 Si          41.2410   105.5420     6.0670 Si            1 RES     
    4716 O           44.3530   147.2570     5.2990 O             1 RES     
    4717 O           21.0960   111.5510    11.3260 O             1 RES     
    4718 O           36.3140   147.7270     2.8030 O             1 RES     
    4719 Si           3.2690   107.8770     4.6890 Si            1 RES     
    4720 Si          44.3260   132.8360    10.9620 Si            1 RES     
    4721 O            5.9080   144.4830     4.7470 O             1 RES     
    4722 O           37.8670   148.5510     6.9750 O             1 RES     
    4723 Si          47.7890   129.7170     7.8140 Si            1 RES     
    4724 O           10.5360   145.8010    10.8160 O             1 RES     
    4725 O           30.0420   106.9110     3.1560 O             1 RES     
    4726 O           29.3280   125.3040     5.3200 O             1 RES     
    4727 O            2.6590   104.1220     4.7300 O             1 RES     
    4728 O            3.6920   139.0040     2.9030 O             1 RES     
    4729 O           46.0630   107.6860    10.0550 O             1 RES     
    4730 Si          42.8980   139.7550    11.7930 Si            1 RES     
    4731 Si          44.6300   132.1160     5.5620 Si            1 RES     
    4732 Si           6.6730   128.6420     4.1830 Si            1 RES     
    4733 O           35.2920   112.1580     4.2350 O             1 RES     
    4734 O           23.1660   115.8090     4.5290 O             1 RES     
    4735 OS          36.2370   133.6100    13.1820 OS            1 RES     
    4736 O            7.7920   119.5000     3.2450 O             1 RES     
    4737 Si          39.0220   139.1650     3.7950 Si            1 RES     
    4738 O           38.6900   139.3440     5.2950 O             1 RES     
    4739 Si          20.5840   146.4850     9.0350 Si            1 RES     
    4740 Si          26.1220   106.8770     3.7100 Si            1 RES     
    4741 O           20.6050   127.2480    10.9330 O             1 RES     
    4742 O           42.4750   143.0040     4.0240 O             1 RES     
    4743 O           48.6060   116.6050     3.7510 O             1 RES     
    4744 OS          31.7590   128.7610    13.1040 OS            1 RES     
    4745 O           17.4440   110.2380     6.5740 O             1 RES     
    4746 O           29.8050   109.3610     3.5760 O             1 RES     
    4747 O           24.9300   102.2730     5.9240 O             1 RES     
    4748 O           28.3520   110.3970     1.7180 O             1 RES     
    4749 O           45.0480   149.2860     3.9300 O             1 RES     
    4750 O           48.9510   141.4400     9.0160 O             1 RES     
    4751 Si          23.2200   144.8880     8.7860 Si            1 RES     
    4752 O           46.5110   130.6330     8.0910 O             1 RES     
    4753 Si           2.9310   120.3950    11.4460 Si            1 RES     
    4754 O           37.0440   136.4570     7.0990 O             1 RES     
    4755 OS          23.2340   145.3400    13.3730 OS            1 RES     
    4756 Si           4.5790   117.8720    12.0130 Si            1 RES     
    4757 O           31.9420   131.6430     9.0490 O             1 RES     
    4758 Si          20.8980   121.6300     7.9010 Si            1 RES     
    4759 O           20.6810   124.5750    10.5290 O             1 RES     
    4760 Si          49.8680   139.7510    11.6200 Si            1 RES     
    4761 O           46.8890   141.2540    10.2250 O             1 RES     
    4762 Si          41.9310   129.5470    10.6970 Si            1 RES     
    4763 O            0.9740   105.9620     6.5700 O             1 RES     
    4764 O           15.6560   134.3010     8.0550 O             1 RES     
    4765 O           11.1760   149.7570    10.1540 O             1 RES     
    4766 O           16.9850   120.3870     6.9930 O             1 RES     
    4767 O           21.1540   122.3680     9.2110 O             1 RES     
    4768 Si           7.0370   104.9610    12.2210 Si            1 RES     
    4769 O            9.8820   135.6720     2.0770 O             1 RES     
    4770 O            2.4470   100.3440    10.6000 O             1 RES     
    4771 Si          34.4530   145.6960    12.7250 Si            1 RES     
    4772 O           35.4760   100.9680    10.6270 O             1 RES     
    4773 O           38.3100   116.9160     6.8450 O             1 RES     
    4774 Si          49.5990   110.9130     3.3680 Si            1 RES     
    4775 O           30.3820   140.4390    11.8390 O             1 RES     
    4776 O            2.3780   148.0490     9.1800 O             1 RES     
    4777 O           11.9200   135.5030     8.8340 O             1 RES     
    4778 Si          11.6610   142.2820    11.3350 Si            1 RES     
    4779 O           16.2840   102.2140     9.1100 O             1 RES     
    4780 O           28.8800   123.1380     6.8910 O             1 RES     
    4781 Si          15.1530   108.2330     3.0780 Si            1 RES     
    4782 O           37.6080   116.6840     3.1480 O             1 RES     
    4783 O           16.5280   123.4710     4.8550 O             1 RES     
    4784 O            2.0400   119.3430    10.6480 O             1 RES     
    4785 O           26.6770   132.2300     8.4070 O             1 RES     
    4786 O           34.8490   145.1810     8.5100 O             1 RES     
    4787 O           44.2890   139.3050    11.3820 O             1 RES     
    4788 O           33.8490   120.4930    11.2560 O             1 RES     
    4789 O           22.5550   139.5800     2.1820 O             1 RES     
    4790 O           42.6690   141.1440    11.1220 O             1 RES     
    4791 O            1.5370   126.3480    11.4820 O             1 RES     
    4792 O            6.7110   137.0250     8.4600 O             1 RES     
    4793 O           40.4520   126.0420     4.4160 O             1 RES     
    4794 Si           1.4310   129.3570     4.3530 Si            1 RES     
    4795 Si          29.4410   144.1440     6.3630 Si            1 RES     
    4796 Si          34.5620   137.2000    12.6940 Si            1 RES     
    4797 O           15.4150   117.9690     3.7480 O             1 RES     
    4798 O           48.6890   129.9460     9.1440 O             1 RES     
    4799 Si          19.7040   135.1190     4.3010 Si            1 RES     
    4800 Si           9.2350   140.2780     8.5050 Si            1 RES     
    4801 O           10.1700   122.6780     3.4770 O             1 RES     
    4802 O           28.0260   148.4980     3.9550 O             1 RES     
    4803 Si          10.2590   107.0960     4.3300 Si            1 RES     
    4804 Si          10.7680   100.3680     4.1590 Si            1 RES     
    4805 O            7.4330   133.4430    10.3300 O             1 RES     
    4806 O           37.5930   112.8270     9.0240 O             1 RES     
    4807 O           39.2760   149.7930     5.2960 O             1 RES     
    4808 Si          40.4220   122.1860     8.0240 Si            1 RES     
    4809 O           41.5440   130.2860     5.8490 O             1 RES     
    4810 Si          15.1180   123.4980     5.5180 Si            1 RES     
    4811 O           37.2250   144.6220     8.1630 O             1 RES     
    4812 Si          37.4620   129.9450     6.6480 Si            1 RES     
    4813 O           28.2940   102.3970     9.6980 O             1 RES     
    4814 Si          49.9060   116.3460     2.8790 Si            1 RES     
    4815 O            2.1370   121.5170    12.1680 O             1 RES     
    4816 O           43.6060   134.1830    10.4770 O             1 RES     
    4817 Si          40.0440   122.8680     2.7750 Si            1 RES     
    4818 Si          30.3540   149.4740    11.0060 Si            1 RES     
    4819 O           10.4660   128.0500     3.3230 O             1 RES     
    4820 O           43.5030   129.4090     4.0760 O             1 RES     
    4821 O           12.3350   134.3870    10.9070 O             1 RES     
    4822 Si          30.2830   135.4870    10.0540 Si            1 RES     
    4823 O            1.5180   107.7760    10.8100 O             1 RES     
    4824 OS          13.9350   148.6380    12.4890 OS            1 RES     
    4825 O           11.8470   115.4370     5.8870 O             1 RES     
    4826 Si          36.3330   141.9210    10.7280 Si            1 RES     
    4827 Si          35.4250   149.3560     9.7630 Si            1 RES     
    4828 O           20.1260   110.3950     6.6900 O             1 RES     
    4829 O           42.1540   103.4420    10.9540 O             1 RES     
    4830 OS          48.7590   104.2680    13.4230 OS            1 RES     
    4831 O           34.3070   145.7400    11.1810 O             1 RES     
    4832 Si          28.9580   119.7090    12.6810 Si            1 RES     
    4833 O           13.5450   102.5430     3.3690 O             1 RES     
    4834 Si          10.8420   126.5980     2.8430 Si            1 RES     
    4835 Si          20.2770   123.7320     5.6520 Si            1 RES     
    4836 Si          14.4350   138.4700     8.2500 Si            1 RES     
    4837 O           14.3810   138.4590    11.4540 O             1 RES     
    4838 Si          40.9010   107.9910    12.3730 Si            1 RES     
    4839 Si           4.0140   112.4090     2.8490 Si            1 RES     
    4840 O           46.4900   105.3760     6.6270 O             1 RES     
    4841 O           43.7220   105.6280     2.8890 O             1 RES     
    4842 OS           9.7740   108.0690    12.8280 OS            1 RES     
    4843 O           11.2780   122.8880     6.1010 O             1 RES     
    4844 Si          34.9060   119.1140     7.6960 Si            1 RES     
    4845 O           14.3030   107.0030     3.5270 O             1 RES     
    4846 O            7.6360   104.7540     3.4860 O             1 RES     
    4847 O            1.1770   136.5940     7.9670 O             1 RES     
    4848 Si          41.8900   136.6090     5.6030 Si            1 RES     
    4849 Si           8.3270   124.6850    10.8860 Si            1 RES     
    4850 Si          48.5580   137.0190     4.7550 Si            1 RES     
    4851 O           18.0280   124.1480     2.7820 O             1 RES     
    4852 O           38.2120   140.3700     3.1680 O             1 RES     
    4853 O           13.2290   118.9340     4.1960 O             1 RES     
    4854 O            1.5240   142.1600     5.3490 O             1 RES     
    4855 O           34.2080   141.4020     2.9950 O             1 RES     
    4856 O            9.9340   130.2440     7.3410 O             1 RES     
    4857 O            2.0630   115.5610     2.9380 O             1 RES     
    4858 Si          27.0240   128.3330     8.6310 Si            1 RES     
    4859 O           38.5380   140.3870    12.5310 O             1 RES     
    4860 O           35.8430   105.7330    11.5410 O             1 RES     
    4861 O           27.5350   102.5990     5.9240 O             1 RES     
    4862 Si          43.6470   106.3850     4.3100 Si            1 RES     
    4863 O           42.4490   145.0810     5.6010 O             1 RES     
    4864 O           38.6840   134.5900     7.1850 O             1 RES     
    4865 Si          43.7680   126.7680     6.7440 Si            1 RES     
    4866 O           47.2250   126.1170     2.2900 O             1 RES     
    4867 O            4.9090   117.5310    10.4690 O             1 RES     
    4868 O           28.7750   105.2600     1.7050 O             1 RES     
    4869 Si          31.4390   121.9590     5.0050 Si            1 RES     
    4870 Si          21.4930   110.7350     7.5580 Si            1 RES     
    4871 O           13.9710   106.4620     5.8890 O             1 RES     
    4872 O           33.0330   113.1450     8.0570 O             1 RES     
    4873 Si          34.9240   133.4730     4.7240 Si            1 RES     
    4874 O           26.3210   132.7020    13.5690 O             1 RES     
    4875 Si          31.5440   141.4570    12.4750 Si            1 RES     
    4876 O           29.3740   143.0310     2.4190 O             1 RES     
    4877 O           25.4890   113.7300    12.0520 O             1 RES     
    4878 Si          41.1940   125.4280     5.6740 Si            1 RES     
    4879 Si          25.0190   133.6200     4.5810 Si            1 RES     
    4880 O           25.8520   137.3180     4.9610 O             1 RES     
    4881 O           26.2680   122.5560     2.5550 O             1 RES     
    4882 O           33.7020   103.5210     8.8710 O             1 RES     
    4883 Si          49.5320   136.2110     7.5480 Si            1 RES     
    4884 O            7.9020   112.8950     5.8120 O             1 RES     
    4885 Si          32.6620   121.5750    11.0900 Si            1 RES     
    4886 Si          41.8410   137.7970     9.8630 Si            1 RES     
    4887 O           24.8970   138.6820     9.4090 O             1 RES     
    4888 O           19.4320   130.9940     8.6450 O             1 RES     
    4889 O           23.0340   106.4600    10.7360 O             1 RES     
    4890 Si           6.1230   121.0220     6.0700 Si            1 RES     
    4891 O           26.2580   107.8970     4.8800 O             1 RES     
    4892 O           24.7020   127.8820     4.0000 O             1 RES     
    4893 O            6.7870   143.4910    11.0880 O             1 RES     
    4894 O            4.7200   126.2960     6.7230 O             1 RES     
    4895 O           37.7030   128.5370     7.3720 O             1 RES     
    4896 O           34.9560   133.9470    11.0150 O             1 RES     
    4897 O           14.4000   121.2030    10.7780 O             1 RES     
    4898 O           17.2170   124.9120    13.6390 O             1 RES     
    4899 O            4.4340   146.6510     3.6400 O             1 RES     
    4900 O           30.7400   141.4030     3.7310 O             1 RES     
    4901 O            4.3840   113.3880    11.0640 O             1 RES     
    4902 O           22.1030   111.6210    13.7130 O             1 RES     
    4903 Si          31.4340   147.1230     9.0250 Si            1 RES     
    4904 OS          36.8030   142.6740    12.0850 OS            1 RES     
    4905 Si          22.1270   135.1590     9.6950 Si            1 RES     
    4906 Si           4.3300   141.3140     8.1820 Si            1 RES     
    4907 O           40.7490   128.5730    10.2950 O             1 RES     
    4908 O           32.6930   140.5850     4.9870 O             1 RES     
    4909 O           31.9860   103.9110     4.1460 O             1 RES     
    4910 O           45.5510   109.8530     8.1410 O             1 RES     
    4911 Si          30.2600   126.5190     5.2240 Si            1 RES     
    4912 Si          30.8330   116.8930    12.4020 Si            1 RES     
    4913 O           33.2690   103.5440     1.8200 O             1 RES     
    4914 Si          33.1600   128.3150     9.5480 Si            1 RES     
    4915 O           44.0770   147.9320    12.2840 O             1 RES     
    4916 O           47.5480   138.0060     5.6180 O             1 RES     
    4917 Si          37.6450   127.2860     8.3550 Si            1 RES     
    4918 O           27.5640   124.5850    13.4620 O             1 RES     
    4919 O            7.1940   124.1080     3.5390 O             1 RES     
    4920 Si          16.4750   100.4530     5.0370 Si            1 RES     
    4921 OS          19.0150   133.9640    12.9490 OS            1 RES     
    4922 Si          13.7360   146.8480     4.7960 Si            1 RES     
    4923 O           45.7160   103.1720     7.7260 O             1 RES     
    4924 O           47.2460   143.8840     6.4930 O             1 RES     
    4925 O           33.8920   107.0090    12.1530 O             1 RES     
    4926 Si          39.0750   105.0900     3.8950 Si            1 RES     
    4927 O           38.7150   111.9880     2.8450 O             1 RES     
    4928 O           17.3960   145.5620     7.7220 O             1 RES     
    4929 Si          25.4570   100.0150     8.9280 Si            1 RES     
    4930 O           26.8410   131.3830    11.3970 O             1 RES     
    4931 Si           6.6870   128.7520     8.6050 Si            1 RES     
    4932 O           22.9350   108.4130     3.4420 O             1 RES     
    4933 O           39.6580   123.4910     8.2180 O             1 RES     
    4934 O           40.5220   113.4140     7.5850 O             1 RES     
    4935 O           12.5910   140.7200     5.2870 O             1 RES     
    4936 OS          29.9960   121.1650    13.4540 OS            1 RES     
    4937 Si          41.0860   112.8460     6.2010 Si            1 RES     
    4938 Si          16.5360   142.3980     6.8450 Si            1 RES     
    4939 O            5.2850   129.5070     8.5800 O             1 RES     
    4940 Si          45.8050   126.2980     2.8180 Si            1 RES     
    4941 O           13.0470   146.5060     7.9250 O             1 RES     
    4942 O            0.7180   149.8240     8.9760 O             1 RES     
    4943 Si          11.1980   135.2150    10.2120 Si            1 RES     
    4944 O           16.1250   127.2630     7.1250 O             1 RES     
    4945 O           42.0090   108.9310     6.7160 O             1 RES     
    4946 O           29.4600   107.4260     7.0500 O             1 RES     
    4947 Si          24.4940   116.1220     5.1530 Si            1 RES     
    4948 O           14.2950   124.3120     4.4240 O             1 RES     
    4949 O           29.1570   132.0700     6.3030 O             1 RES     
    4950 O           16.2070   142.0650     2.8460 O             1 RES     
    4951 Si           9.1930   102.1070     6.1930 Si            1 RES     
    4952 O           22.3780   110.9030     3.1270 O             1 RES     
    4953 O           29.5450   127.8690     5.5900 O             1 RES     
    4954 Si           9.7130   135.8030     6.0890 Si            1 RES     
    4955 O           16.2530   139.6080     2.5560 O             1 RES     
    4956 O           36.1380   134.2730     4.0100 O             1 RES     
    4957 O           38.8820   142.7470     2.5550 O             1 RES     
    4958 O           41.4980   104.0980     6.5750 O             1 RES     
    4959 O           44.7810   141.7280     3.7870 O             1 RES     
    4960 Si          21.5530   137.3940     5.0980 Si            1 RES     
    4961 O           15.2540   146.7190     5.0130 O             1 RES     
    4962 Si          48.3050   108.8110     5.0710 Si            1 RES     
    4963 Si          19.3380   136.4260     9.9850 Si            1 RES     
    4964 O           47.7060   108.7760     8.5610 O             1 RES     
    4965 O           16.0610   106.3310     7.6540 O             1 RES     
    4966 O           48.3560   110.4680     2.3570 O             1 RES     
    4967 Si           7.5970   115.8860     3.3550 Si            1 RES     
    4968 Si          33.3320   142.4600    10.1280 Si            1 RES     
    4969 Si          46.0100   136.0040     3.3990 Si            1 RES     
    4970 O           46.9380   140.5590     4.9240 O             1 RES     
    4971 Si          14.4050   118.2450     4.9420 Si            1 RES     
    4972 O           46.1040   111.4080     5.6420 O             1 RES     
    4973 O           27.3830   108.8200     6.7370 O             1 RES     
    4974 O           31.8700   115.0560     3.2500 O             1 RES     
    4975 Si          15.9070   110.0890     6.7220 Si            1 RES     
    4976 O           10.8390   115.5770    10.8400 O             1 RES     
    4977 Si           3.8790   123.8550     9.3030 Si            1 RES     
    4978 O           10.9570   121.5610     8.4690 O             1 RES     
    4979 Si           7.0870   127.4220    11.3940 Si            1 RES     
    4980 O           42.1170   120.9600    11.0440 O             1 RES     
    4981 O           41.2090   106.6220     7.2350 O             1 RES     
    4982 Si           3.2300   116.7320     5.8630 Si            1 RES     
    4983 O           25.0490   141.8660     6.4780 O             1 RES     
    4984 Si           1.2730   144.7730    10.5840 Si            1 RES     
    4985 O            2.6120   146.4420     7.0790 O             1 RES     
    4986 O           13.6390   149.8840    10.2120 O             1 RES     
    4987 O           30.6700   134.1810     9.2810 O             1 RES     
    4988 Si          41.1270   142.6480     8.1450 Si            1 RES     
    4989 O           40.0150   106.7220    12.7820 O             1 RES     
    4990 OS          46.5220   114.8410    13.6800 OS            1 RES     
    4991 O           19.5030   137.4470    11.1780 O             1 RES     
    4992 O           40.1420   118.5980     7.4890 O             1 RES     
    4993 O            6.4810   145.2430    12.8770 O             1 RES     
    4994 O            3.6000   144.9390     4.7370 O             1 RES     
    4995 O           40.1310   132.9500    10.1810 O             1 RES     
    4996 Si          26.6890   116.7210     3.0580 Si            1 RES     
    4997 OS          23.2980   116.4810    11.5780 OS            1 RES     
    4998 O            7.4210   133.3580     4.5400 O             1 RES     
    4999 O           47.3600   132.4420     2.6270 O             1 RES     
    5000 O           38.3920   145.2230     3.4960 O             1 RES     
    5001 O            2.3880   118.0540     6.4230 O             1 RES     
    5002 O           25.3700   136.4550     2.4690 O             1 RES     
    5003 O           33.4470   113.1420     3.1830 O             1 RES     
    5004 O           24.0410   123.1650    13.5520 O             1 RES     
    5005 O           36.7380   134.8560     9.1230 O             1 RES     
    5006 O           43.6660   135.3340     8.4330 O             1 RES     
    5007 O           39.8860   102.2040    10.2160 O             1 RES     
    5008 OS          49.6020   112.7850    13.2680 OS            1 RES     
    5009 O           33.9400   124.2910     2.7330 O             1 RES     
    5010 O           11.1720   118.9820     5.3790 O             1 RES     
    5011 O           14.0480   109.3350     3.0620 O             1 RES     
    5012 O           42.7380   134.8950     2.7400 O             1 RES     
    5013 O           45.4570   130.3800     2.5570 O             1 RES     
    5014 O           34.2480   135.0790     8.7640 O             1 RES     
    5015 O           14.3800   126.3200    10.8220 O             1 RES     
    5016 Si           5.3480   149.4170    12.7330 Si            1 RES     
    5017 O           34.2900   104.8140    13.7120 O             1 RES     
    5018 O           41.5300   111.3990     6.3670 O             1 RES     
    5019 O           46.0850   135.4200     1.9540 O             1 RES     
    5020 Si          11.4050   122.6560     4.4670 Si            1 RES     
    5021 Si           5.4440   146.3220    12.6150 Si            1 RES     
    5022 O           47.9650   103.8760     8.0230 O             1 RES     
    5023 O           22.6100   124.2770     9.1200 O             1 RES     
    5024 O            8.7410   103.2920     5.2770 O             1 RES     
    5025 O           43.1120   113.3500    10.8740 O             1 RES     
    5026 O           40.3440   148.4660     7.4730 O             1 RES     
    5027 OS           3.4810   104.3130    11.9250 OS            1 RES     
    5028 OS          15.4450   137.0720    13.3770 OS            1 RES     
    5029 O           30.5520   132.6320    11.0970 O             1 RES     
    5030 O           14.9040   113.0700     7.7000 O             1 RES     
    5031 Si          43.4640   134.5120     4.1050 Si            1 RES     
    5032 O           37.2750   141.3190     6.3480 O             1 RES     
    5033 O           16.5790   108.1120     3.7590 O             1 RES     
    5034 O           44.9030   117.5790     9.8250 O             1 RES     
    5035 O           42.4170   123.6620    11.1840 O             1 RES     
    5036 Si          11.8210   119.6120     4.0960 Si            1 RES     
    5037 O            4.2290   104.2180     9.5200 O             1 RES     
    5038 O           11.9240   103.5670     7.9060 O             1 RES     
    5039 Si          23.2640   128.3340     4.5650 Si            1 RES     
    5040 Si          10.6550   115.6260     6.9070 Si            1 RES     
    5041 Si          16.6240   147.4700     4.8540 Si            1 RES     
    5042 O           42.4230   143.5150    11.6360 O             1 RES     
    5043 O           44.6300   113.0840     4.7050 O             1 RES     
    5044 O           24.8870   123.7760     8.7800 O             1 RES     
    5045 Si          44.1340   114.4970    10.5390 Si            1 RES     
    5046 O            1.7890   111.3740     9.7400 O             1 RES     
    5047 Si          36.3550   148.1240     7.1680 Si            1 RES     
    5048 O           10.2310   149.0210     4.5630 O             1 RES     
    5049 O           28.3610   124.1750     9.0730 O             1 RES     
    5050 O           20.6590   143.6390     4.2780 O             1 RES     
    5051 Si          19.3750   141.1540     7.3020 Si            1 RES     
    5052 O           30.9560   111.5940     8.6360 O             1 RES     
    5053 OS          18.8340   109.1030    13.2000 OS            1 RES     
    5054 OS          18.5960   117.9340    13.0090 OS            1 RES     
    5055 O           46.4730   101.5150     3.5410 O             1 RES     
    5056 O           12.2390   125.8070     3.0760 O             1 RES     
    5057 O           34.3740   121.7230     2.4900 O             1 RES     
    5058 O            7.1170   149.6020     8.2970 O             1 RES     
    5059 O            7.2630   140.2660     5.4760 O             1 RES     
    5060 Si           5.9150   139.6130     6.0160 Si            1 RES     
    5061 Si           9.3260   130.2780     8.7720 Si            1 RES     
    5062 O           21.8550   112.2470     7.6560 O             1 RES     
    5063 Si          32.0220   145.5090     3.4310 Si            1 RES     
    5064 Si          26.3280   136.2830     3.8650 Si            1 RES     
    5065 Si          29.2960   149.2110     4.6370 Si            1 RES     
    5066 Si           9.8470   149.8200    11.0250 Si            1 RES     
    5067 O           23.2350   137.5940     5.5630 O             1 RES     
    5068 O            4.4610   104.4630     6.6550 O             1 RES     
    5069 O           37.6840   104.5540     4.2990 O             1 RES     
    5070 O            8.1540   143.7040     6.2390 O             1 RES     
    5071 O           16.5850   103.8740     7.1990 O             1 RES     
    5072 Si          43.4070   114.0150     4.5790 Si            1 RES     
    5073 O           29.2980   138.8270     7.6790 O             1 RES     
    5074 O           29.3870   121.7350     9.2020 O             1 RES     
    5075 Si          19.1950   149.8120     3.6240 Si            1 RES     
    5076 O           38.6720   138.0910    11.0390 O             1 RES     
    5077 Si          37.7770   135.5230     8.0530 Si            1 RES     
    5078 O            0.8420   123.7000    11.6950 O             1 RES     
    5079 Si          45.3090   146.5390     8.6930 Si            1 RES     
    5080 O           40.1670   132.8790     5.9980 O             1 RES     
    5081 O           49.4920   112.2080     4.3130 O             1 RES     
    5082 Si          43.2470   118.1450     6.8110 Si            1 RES     
    5083 O            1.2610   145.9670     4.7330 O             1 RES     
    5084 O           20.5560   106.5140    11.2540 O             1 RES     
    5085 Si          46.4700   121.9070     5.5860 Si            1 RES     
    5086 O           33.7270   104.7470    11.2180 O             1 RES     
    5087 O           48.7680   139.6940    10.5490 O             1 RES     
    5088 Si           3.4020   101.0840     6.7640 Si            1 RES     
    5089 O           21.3330   101.8710    11.3530 O             1 RES     
    5090 O           35.5060   111.1090     6.4490 O             1 RES     
    5091 O           26.7580   104.1720     8.6430 O             1 RES     
    5092 OS          44.5140   128.1680    12.7980 OS            1 RES     
    5093 O           37.1250   104.6340     6.7400 O             1 RES     
    5094 Si          42.0090   108.7670     3.2600 Si            1 RES     
    5095 Si          46.1000   112.5440     4.5270 Si            1 RES     
    5096 OS          49.5030   140.8540    12.6370 OS            1 RES     
    5097 O           11.7300   111.3630    10.8470 O             1 RES     
    5098 Si          10.5060   103.9990     8.3070 Si            1 RES     
    5099 O           26.4340   142.8610    11.3620 O             1 RES     
    5100 OS          10.2690   120.2770    12.7150 OS            1 RES     
    5101 O            4.0880   106.5780     5.0410 O             1 RES     
    5102 Si           4.7960   145.1350     3.8250 Si            1 RES     
    5103 Si          17.2500   136.7620     5.3500 Si            1 RES     
    5104 O           22.6580   135.0170     8.1920 O             1 RES     
    5105 O            4.7760   111.3850     3.7570 O             1 RES     
    5106 Si           2.1730   130.1660    10.6390 Si            1 RES     
    5107 OS          29.6660   109.5910    12.2180 OS            1 RES     
    5108 Si           1.5830   119.4170     6.7290 Si            1 RES     
    5109 Si           4.1910   130.4610     4.9740 Si            1 RES     
    5110 O           18.7420   119.2920     3.6040 O             1 RES     
    5111 OS          29.6860   144.8840    11.6080 OS            1 RES     
    5112 Si          21.1900   142.2330     4.8640 Si            1 RES     
    5113 O           30.7800   120.5740     4.9990 O             1 RES     
    5114 O           19.1700   119.3410     6.1340 O             1 RES     
    5115 Si          21.9210   105.8130    11.6850 Si            1 RES     
    5116 O           30.8090   116.9810     1.4340 O             1 RES     
    5117 O           19.2280   134.6030     2.8800 O             1 RES     
    5118 Si           4.1090   105.0000     5.1770 Si            1 RES     
    5119 O            6.3600   118.8940     8.8740 O             1 RES     
    5120 O            6.2940   100.6990     3.4020 O             1 RES     
    5121 O           15.1280   103.2530    11.2180 O             1 RES     
    5122 Si          24.5940   116.9940    10.8350 Si            1 RES     
    5123 Si          12.2190   147.6710     7.2280 Si            1 RES     
    5124 O           37.6340   143.1750     4.6860 O             1 RES     
    5125 OS          40.8040   109.0420    13.7160 OS            1 RES     
    5126 Si          27.3070   145.2360     8.2250 Si            1 RES     
    5127 O           33.9980   122.9060     7.6760 O             1 RES     
    5128 O           45.1190   137.2770     3.0810 O             1 RES     
    5129 O            6.8140   147.4990     9.5180 O             1 RES     
    5130 O           14.2680   143.1000     4.5660 O             1 RES     
    5131 O           41.9410   138.7310    11.1050 O             1 RES     
    5132 O            5.3760   140.2880     7.4140 O             1 RES     
    5133 O           40.1690   143.8500     4.6990 O             1 RES     
    5134 O           27.7100   140.7150     6.5120 O             1 RES     
    5135 O           40.9140   141.0570     8.2180 O             1 RES     
    5136 O           30.0460   140.2740     5.7160 O             1 RES     
    5137 O           17.3190   147.0070     3.5200 O             1 RES     
    5138 Si          32.9580   104.0070    10.1090 Si            1 RES     
    5139 Si          34.8320   134.0840    12.5900 Si            1 RES     
    5140 OS           7.6280   143.2180    13.5850 OS            1 RES     
    5141 Si          47.7210   126.6370     7.6180 Si            1 RES     
    5142 O           30.9160   126.5840     3.7620 O             1 RES     
    5143 O           23.9220   142.3280    12.3240 O             1 RES     
    5144 OS          25.8880   140.5100    13.6960 OS            1 RES     
    5145 O           36.9150   115.8830     8.6820 O             1 RES     
    5146 O           21.1230   147.8380     9.4230 O             1 RES     
    5147 O           44.2260   101.4090     2.5910 O             1 RES     
    5148 O           21.3940   124.2170     4.6260 O             1 RES     
    5149 OS          38.1040   125.3190    12.6240 OS            1 RES     
    5150 Si          32.5640   111.8050     8.6730 Si            1 RES     
    5151 O           33.7820   118.0900     7.4940 O             1 RES     
    5152 O            9.2800   139.5730    11.9060 O             1 RES     
    5153 O            1.9720   101.2120     6.1930 O             1 RES     
    5154 O           46.1200   147.9080     8.9550 O             1 RES     
    5155 O           15.0400   145.0910     8.8960 O             1 RES     
    5156 O           40.8230   125.8370     1.9520 O             1 RES     
    5157 O            5.1570   133.7200     3.2020 O             1 RES     
    5158 Si          43.0790   147.3120    11.1950 Si            1 RES     
    5159 O           21.8820   118.2290     2.1210 O             1 RES     
    5160 O            9.7870   141.1050     4.7360 O             1 RES     
    5161 O            6.1870   110.7460     5.5900 O             1 RES     
    5162 O           34.0590   149.7060     8.3830 O             1 RES     
    5163 O           46.9490   142.9200     4.2110 O             1 RES     
    5164 O           40.5380   139.4770     3.5280 O             1 RES     
    5165 O           25.0980   148.5330     8.5770 O             1 RES     
    5166 Si          33.8420   145.4100     9.7360 Si            1 RES     
    5167 O            1.0700   129.6330     2.7850 O             1 RES     
    5168 O           31.7480   146.3360     4.7500 O             1 RES     
    5169 OS          46.7180   143.3970    11.7750 OS            1 RES     
    5170 O           45.9950   125.4950     4.1030 O             1 RES     
    5171 Si          24.4620   120.2280     4.2260 Si            1 RES     
    5172 O            1.2180   140.0580    10.7650 O             1 RES     
    5173 O           49.7400   119.9800    10.4620 O             1 RES     
    5174 O           36.5850   107.6310    10.1330 O             1 RES     
    5175 O           32.3760   149.8430     3.1810 O             1 RES     
    5176 OS          29.5430   149.3210    12.4220 OS            1 RES     
    5177 Si          38.2170   148.4220    11.3390 Si            1 RES     
    5178 OS          27.3500   136.5040    12.2680 OS            1 RES     
    5179 O           21.5430   131.5880     9.9880 O             1 RES     
    5180 O           34.2360   127.1980    10.1070 O             1 RES     
    5181 Si          28.9930   105.7800     3.1930 Si            1 RES     
    5182 O           16.7080   112.7920     9.7260 O             1 RES     
    5183 OS           8.3120   128.2320    12.0050 OS            1 RES     
    5184 Si          17.5100   125.8340    12.3960 Si            1 RES     
    5185 O           13.1120   145.4360     5.0930 O             1 RES     
    5186 O            8.6580   138.8890     7.8230 O             1 RES     
    5187 O           25.4570   130.2240     5.8030 O             1 RES     
    5188 OS          15.4610   130.9980    12.0200 OS            1 RES     
    5189 OS          20.9830   117.0100    12.4260 OS            1 RES     
    5190 O            2.5790   123.0990     5.9300 O             1 RES     
    5191 Si          23.6140   120.2550     7.2040 Si            1 RES     
    5192 O           12.8580   128.5260    10.3000 O             1 RES     
    5193 Si          49.4750   131.2930     5.8120 Si            1 RES     
    5194 O           30.2560   107.0160    13.1400 O             1 RES     
    5195 O            1.0510   142.4950     2.7780 O             1 RES     
    5196 O           47.2880   139.8280     7.4040 O             1 RES     
    5197 Si          18.5590   146.0310     6.8330 Si            1 RES     
    5198 Si          34.5940   112.1700     2.8700 Si            1 RES     
    5199 Si          22.8780   132.3050    10.6540 Si            1 RES     
    5200 O           40.5280   115.8970     7.9670 O             1 RES     
    5201 O           49.8640   121.4210    12.6100 O             1 RES     
    5202 Si          42.2390   103.0160     7.4680 Si            1 RES     
    5203 OS           3.7080   132.8340    13.4430 OS            1 RES     
    5204 O           49.6160   116.5430    11.2260 O             1 RES     
    5205 Si          27.6710   125.6370    12.2540 Si            1 RES     
    5206 O            9.4760   125.8230     3.2250 O             1 RES     
    5207 OS          16.1200   118.1080    12.2320 OS            1 RES     
    5208 Si           2.5000   136.8800     8.8330 Si            1 RES     
    5209 O           10.4580   119.5140    10.2270 O             1 RES     
    5210 O           31.5910   100.4320    11.3760 O             1 RES     
    5211 O            6.2520   103.0190     2.5250 O             1 RES     
    5212 O           23.7620   120.4510     5.6460 O             1 RES     
    5213 O            6.4440   128.1370     2.6900 O             1 RES     
    5214 Si          32.9600   116.8100     7.8490 Si            1 RES     
    5215 O           45.8420   112.2230     2.9200 O             1 RES     
    5216 Si          32.2490   134.8590     5.3880 Si            1 RES     
    5217 O           43.5730   119.3770     5.9410 O             1 RES     
    5218 O           41.4800   111.2340    10.4330 O             1 RES     
    5219 O           27.1300   119.9590    11.9050 O             1 RES     
    5220 O           43.1120   109.0960     2.1700 O             1 RES     
    5221 O           15.5340   125.4820     8.9350 O             1 RES     
    5222 O           44.5210   117.3100     6.5560 O             1 RES     
    5223 O           13.6740   144.1950     7.0730 O             1 RES     
    5224 OS          14.3730   114.0060    12.1490 OS            1 RES     
    5225 O           15.2320   124.6720     6.5390 O             1 RES     
    5226 O           10.0290   105.5380     8.3100 O             1 RES     
    5227 Si          25.5300   122.6310     7.8570 Si            1 RES     
    5228 O            2.1790   147.9090     3.7720 O             1 RES     
    5229 Si          28.9950   123.7520     5.4270 Si            1 RES     
    5230 Si           3.1650   110.6790    10.1300 Si            1 RES     
    5231 O           16.2890   128.8230     5.1010 O             1 RES     
    5232 O           17.3520   132.1840     7.5460 O             1 RES     
    5233 O           34.8070   139.4040     4.0380 O             1 RES     
    5234 Si          36.5260   142.5080     5.6500 Si            1 RES     
    5235 O           19.9540   106.7290     6.2850 O             1 RES     
    5236 OS           4.6190   112.9200    13.5930 OS            1 RES     
    5237 O            2.3390   104.1420     7.6210 O             1 RES     
    5238 O           41.9660   130.8780     9.8350 O             1 RES     
    5239 Si          35.8660   149.2400     2.9200 Si            1 RES     
    5240 O            8.7220   118.7280     5.6150 O             1 RES     
    5241 OS          14.6250   103.0450    13.8430 OS            1 RES     
    5242 Si          35.9630   137.4350     6.4760 Si            1 RES     
    5243 Si           5.4570   115.2780     7.5350 Si            1 RES     
    5244 OS          27.9400   114.5790    12.6080 OS            1 RES     
    5245 Si          43.3240   141.8310     3.2860 Si            1 RES     
    5246 Si          43.4030   146.2690     6.1900 Si            1 RES     
    5247 Si          29.6460   111.3040     7.7860 Si            1 RES     
    5248 O           36.5260   114.3320    10.5830 O             1 RES     
    5249 O           36.0060   143.7990     6.4990 O             1 RES     
    5250 Si           8.0120   114.4310     6.0600 Si            1 RES     
    5251 O           38.2490   118.3300     8.8490 O             1 RES     
    5252 O           43.7310   119.8350     3.3930 O             1 RES     
    5253 O           27.6680   135.9060     3.0870 O             1 RES     
    5254 O            0.4900   143.5340    10.0180 O             1 RES     
    5255 O           13.6420   135.4190     6.9260 O             1 RES     
    5256 Si          12.9910   127.1330    10.9580 Si            1 RES     
    5257 Si          23.8630   145.8620    11.9930 Si            1 RES     
    5258 O           22.2970   148.3590     5.3120 O             1 RES     
    5259 Si          25.9610   105.2320     7.8690 Si            1 RES     
    5260 O           24.2940   101.8930     2.7680 O             1 RES     
    5261 O           16.4760   137.7040     4.3180 O             1 RES     
    5262 OS          22.5200   149.9330    12.4180 OS            1 RES     
    5263 O           38.9960   106.4630     3.1540 O             1 RES     
    5264 Si          10.7150   131.6810    12.0640 Si            1 RES     
    5265 O           34.5510   135.6090    12.8760 O             1 RES     
    5266 Si          40.2900   117.2020     6.6710 Si            1 RES     
    5267 O            0.1750   117.8730     2.5890 O             1 RES     
    5268 O           25.4540   116.6890     4.0590 O             1 RES     
    5269 O           21.2320   141.1290     3.7910 O             1 RES     
    5270 O           47.9910   120.1320     7.5240 O             1 RES     
    5271 O           28.9260   101.4310     7.6320 O             1 RES     
    5272 Si          24.1400   106.9550     9.6920 Si            1 RES     
    5273 Si          10.0460   145.8610    12.3140 Si            1 RES     
    5274 O           19.5920   146.6460     7.8140 O             1 RES     
    5275 O           49.2820   113.9790     6.4470 O             1 RES     
    5276 Si          32.7610   130.8370     8.0090 Si            1 RES     
    5277 OS          36.0280   119.1090    11.6440 OS            1 RES     
    5278 O           25.9280   136.2850     9.9660 O             1 RES     
    5279 O           16.9410   101.5030    13.9450 O             1 RES     
    5280 Si           8.0890   109.1650     3.4690 Si            1 RES     
    5281 O            7.4840   143.0870     8.6110 O             1 RES     
    5282 O            1.1320   127.7500     4.4110 O             1 RES     
    5283 Si          41.8280   148.1740     7.9800 Si            1 RES     
    5284 Si          38.2600   109.3290     6.6120 Si            1 RES     
    5285 O           40.4440   145.0910    11.7210 O             1 RES     
    5286 O           22.1720   128.9880    12.0870 O             1 RES     
    5287 O           22.5850   142.3680     5.5940 O             1 RES     
    5288 O            6.3640   100.9860    13.3560 O             1 RES     
    5289 O           21.1010   118.6210     4.3820 O             1 RES     
    5290 O           28.6020   125.5380    10.9880 O             1 RES     
    5291 Si          45.1290   116.0420     5.8950 Si            1 RES     
    5292 OS          48.0560   145.4530    12.2910 OS            1 RES     
    5293 O           14.1680   124.4350     1.8690 O             1 RES     
    5294 O           13.8490   113.9900     5.4690 O             1 RES     
    5295 Si          41.6930   122.5180     5.2840 Si            1 RES     
    5296 O            7.7250   110.1780     9.7690 O             1 RES     
    5297 O           15.1780   141.4640     6.7210 O             1 RES     
    5298 O            0.5540   124.3760     6.7230 O             1 RES     
    5299 Si          38.2510   139.6490    11.1770 Si            1 RES     
    5300 O           13.2470   104.9020     3.6700 O             1 RES     
    5301 O           37.0490   108.3670     5.3170 O             1 RES     
    5302 O           18.5340   109.5700     4.7320 O             1 RES     
    5303 O           28.1010   107.5450     8.9600 O             1 RES     
    5304 O            4.4450   149.1510     3.9220 O             1 RES     
    5305 Si          34.1500   100.2340     6.9910 Si            1 RES     
    5306 O           28.9690   100.5530     5.4100 O             1 RES     
    5307 O           25.2910   145.2430    11.4690 O             1 RES     
    5308 OS          48.5810   100.0460    12.8100 OS            1 RES     
    5309 O            9.1010   141.7060     7.7430 O             1 RES     
    5310 OS          48.7460   116.5420    13.5350 OS            1 RES     
    5311 O            2.8580   131.2520    11.5010 O             1 RES     
    5312 O           28.9490   132.9340     4.0500 O             1 RES     
    5313 Si          46.1820   113.6870    12.6920 Si            1 RES     
    5314 O           22.4060   127.0210     4.5720 O             1 RES     
    5315 O           32.4200   122.4380     3.8130 O             1 RES     
    5316 Si          19.3320   137.9810     7.2560 Si            1 RES     
    5317 OS          13.0730   133.9140    13.3170 OS            1 RES     
    5318 OS           1.1850   149.5760    12.8470 OS            1 RES     
    5319 Si          23.2730   136.9670    11.8210 Si            1 RES     
    5320 O           25.0460   137.2640     7.3890 O             1 RES     
    5321 O           14.9480   119.2350     6.0250 O             1 RES     
    5322 O           20.8760   130.5270     2.4170 O             1 RES     
    5323 Si          47.2880   148.5670     9.7450 Si            1 RES     
    5324 Si          39.1580   105.4970    12.3780 Si            1 RES     
    5325 O            6.1050   135.7080     4.4190 O             1 RES     
    5326 O           36.5980   102.3970    12.3880 O             1 RES     
    5327 Si          15.4760   120.6070     6.7620 Si            1 RES     
    5328 O           14.5900   133.3570    11.3350 O             1 RES     
    5329 Si          17.0470   100.9500    12.4370 Si            1 RES     
    5330 O            2.3170   107.2640     8.3850 O             1 RES     
    5331 O            9.0200   136.3940     7.3610 O             1 RES     
    5332 OS           0.4130   136.1710    11.9020 OS            1 RES     
    5333 O            7.3160   117.2230    10.7510 O             1 RES     
    5334 O           48.3180   149.4250     8.8890 O             1 RES     
    5335 Si          46.3050   107.2390    11.5810 Si            1 RES     
    5336 Si           0.9870   122.4530    12.7220 Si            1 RES     
    5337 O           26.4740   116.1000     1.6920 O             1 RES     
    5338 OS           8.1300   103.5870    11.1090 OS            1 RES     
    5339 OS          43.5260   105.4500    13.6310 OS            1 RES     
    5340 O           12.0960   109.1050     6.9030 O             1 RES     
    5341 Si          34.7290   119.2200    10.7460 Si            1 RES     
    5342 O            9.8690   136.6850     4.6570 O             1 RES     
    5343 O           41.9290   117.3280     6.3350 O             1 RES     
    5344 O            9.4350   146.6280     4.5100 O             1 RES     
    5345 O           40.4240   108.4670     2.8820 O             1 RES     
    5346 Si          26.2590   107.5200    11.9100 Si            1 RES     
    5347 O           32.8230   146.4750     9.3520 O             1 RES     
    5348 Si           6.6160   122.6860     3.5980 Si            1 RES     
    5349 O           27.6590   126.8770     8.9330 O             1 RES     
    5350 Si          15.6720   143.1520     3.8470 Si            1 RES     
    5351 O           44.8030   125.8370     6.1180 O             1 RES     
    5352 O           12.3800   100.3960     4.1410 O             1 RES     
    5353 O           89.3280    24.2340     3.1580 O             1 RES     
    5354 O           58.4580    48.5390     6.1960 O             1 RES     
    5355 O           59.9370    34.3450     9.7080 O             1 RES     
    5356 O           77.9310    20.9500     2.9650 O             1 RES     
    5357 Si          84.0510    21.9090     6.4800 Si            1 RES     
    5358 O           81.4160    17.1410     7.9150 O             1 RES     
    5359 O           57.4230    25.4710     6.7820 O             1 RES     
    5360 O           97.1120     3.1090     5.5400 O             1 RES     
    5361 O           82.8980     7.8050     9.9470 O             1 RES     
    5362 Si          88.7810    11.9610     4.5220 Si            1 RES     
    5363 OS          75.3700     1.5880    12.7280 OS            1 RES     
    5364 O           78.2200     7.4620    11.4690 O             1 RES     
    5365 O           91.5420    22.2820     9.1930 O             1 RES     
    5366 O           81.7550     1.9730    13.4760 O             1 RES     
    5367 Si          51.2140    26.3900     3.6200 Si            1 RES     
    5368 O           82.1660    42.1050     9.0280 O             1 RES     
    5369 O           76.2930    46.3710     7.6460 O             1 RES     
    5370 O           67.5360    25.3840     7.5700 O             1 RES     
    5371 O           95.4190    33.1370    12.1080 O             1 RES     
    5372 Si          87.4340     4.1390     8.1680 Si            1 RES     
    5373 O           85.4360    32.8570     8.7280 O             1 RES     
    5374 O           73.7070    24.5910     4.9950 O             1 RES     
    5375 O           59.6650    31.9680     5.7910 O             1 RES     
    5376 Si          95.4860    22.8860    10.2000 Si            1 RES     
    5377 Si          69.9930    18.2280    12.3350 Si            1 RES     
    5378 O           74.5250    30.7410     7.9630 O             1 RES     
    5379 O           82.6640    41.9310    11.4990 O             1 RES     
    5380 O           56.5590    27.3500     5.0100 O             1 RES     
    5381 Si          58.9520    33.0600     4.9870 Si            1 RES     
    5382 O           90.1130    25.9410     9.7650 O             1 RES     
    5383 O           70.6210    37.5380     6.4480 O             1 RES     
    5384 Si          74.6920    29.4830     6.9840 Si            1 RES     
    5385 Si          69.3940    15.7420     5.6330 Si            1 RES     
    5386 O           79.8760    11.7970     6.2890 O             1 RES     
    5387 O           87.9360    30.6050     3.1040 O             1 RES     
    5388 O           99.3000    43.1650     4.7740 O             1 RES     
    5389 O           99.2410    15.4300     8.7790 O             1 RES     
    5390 Si          66.0040    25.6960     7.5250 Si            1 RES     
    5391 O           60.2360     3.4110     9.6970 O             1 RES     
    5392 O           93.4210    28.2730     6.3950 O             1 RES     
    5393 O           50.1870    40.6520     3.9740 O             1 RES     
    5394 O           61.9330    36.8760     3.0060 O             1 RES     
    5395 Si          93.8870     0.3740     7.3530 Si            1 RES     
    5396 O           73.3580    12.3080    11.7210 O             1 RES     
    5397 Si          75.3870    41.5760    12.4880 Si            1 RES     
    5398 O           96.0860    21.2950     7.0170 O             1 RES     
    5399 O           71.7340     6.6160     4.3500 O             1 RES     
    5400 O           73.6280    38.4180    11.4120 O             1 RES     
    5401 O           98.4240    30.3200     6.4430 O             1 RES     
    5402 O           64.8410    23.7240    11.1040 O             1 RES     
    5403 O           63.8720     7.7270     8.0010 O             1 RES     
    5404 O           92.9320    35.6550     5.0210 O             1 RES     
    5405 Si          64.9580    22.2990    11.7660 Si            1 RES     
    5406 Si          51.3660    23.9370     5.4410 Si            1 RES     
    5407 O           52.1070    45.4170     9.4240 O             1 RES     
    5408 Si          73.7100    28.9220    12.3920 Si            1 RES     
    5409 O           88.9530    35.4330    11.0830 O             1 RES     
    5410 O           68.9750    37.1960     8.6150 O             1 RES     
    5411 O           70.4090    49.8920     4.6600 O             1 RES     
    5412 OS          95.0010    36.9310    13.7540 OS            1 RES     
    5413 O           96.3590    38.6730     9.4100 O             1 RES     
    5414 Si          80.3630    42.9570     3.6210 Si            1 RES     
    5415 O           72.5390     0.6400     1.6870 O             1 RES     
    5416 Si          97.8950    43.8810     5.0840 Si            1 RES     
    5417 O           71.7380    45.4450     8.6830 O             1 RES     
    5418 O           79.7260    34.7920    11.3840 O             1 RES     
    5419 O           78.0750     5.0820    10.5820 O             1 RES     
    5420 Si          74.9300    47.1050     7.6980 Si            1 RES     
    5421 O           99.2420    47.3080     4.1190 O             1 RES     
    5422 O           92.6700    39.8890    13.3630 O             1 RES     
    5423 O           80.4550     7.1310    10.0400 O             1 RES     
    5424 Si          73.1700     7.2460     4.4180 Si            1 RES     
    5425 O           72.6910    40.0080     9.8390 O             1 RES     
    5426 O           59.2430    34.4260     5.6130 O             1 RES     
    5427 Si          85.9510    45.0840     7.4200 Si            1 RES     
    5428 O           63.0020    14.6690    10.0680 O             1 RES     
    5429 Si          72.3030    18.2180     3.4300 Si            1 RES     
    5430 O           88.6920    44.6600     9.9650 O             1 RES     
    5431 Si          55.3750    36.6310     5.4460 Si            1 RES     
    5432 O           81.6610     6.9240     7.6810 O             1 RES     
    5433 OS          52.1040    44.4950    11.9170 OS            1 RES     
    5434 O           83.2710    37.6820     4.3090 O             1 RES     
    5435 O           52.5230    37.1640    12.4500 O             1 RES     
    5436 O           84.7990    41.8550    10.2240 O             1 RES     
    5437 Si          70.4020    45.1770     4.5950 Si            1 RES     
    5438 Si          80.0820    17.9670     7.9450 Si            1 RES     
    5439 O           80.5780    43.3520     7.2540 O             1 RES     
    5440 O           69.3900    32.4830    10.8440 O             1 RES     
    5441 O           88.7970    47.0110    10.9690 O             1 RES     
    5442 Si          89.4990    19.3740     8.7080 Si            1 RES     
    5443 Si          53.8240    29.5800     7.9930 Si            1 RES     
    5444 O           87.3440     8.4030     7.9400 O             1 RES     
    5445 O           65.1020    37.0500     8.0510 O             1 RES     
    5446 O           59.6790     3.5510     2.8980 O             1 RES     
    5447 O           81.5790    43.9430     3.5960 O             1 RES     
    5448 Si          85.8900    12.3490     5.6510 Si            1 RES     
    5449 O           54.2640     9.0260     4.7800 O             1 RES     
    5450 O           94.0270    15.3980     4.9560 O             1 RES     
    5451 OS          88.3090    33.0360    11.9640 OS            1 RES     
    5452 Si          82.8510    29.5180    12.2650 Si            1 RES     
    5453 O           72.9350    41.4540     7.9210 O             1 RES     
    5454 O           80.0370    49.7050     3.3810 O             1 RES     
    5455 Si          53.5000    38.7530     4.4320 Si            1 RES     
    5456 O           88.2010    10.6540     7.5920 O             1 RES     
    5457 O           59.7210    44.1600     8.4230 O             1 RES     
    5458 O           88.4650    25.9060     8.1340 O             1 RES     
    5459 O           56.0940    16.2190     8.6880 O             1 RES     
    5460 OS          91.3560    36.3370    10.0850 OS            1 RES     
    5461 Si          65.1630    35.7140     7.3010 Si            1 RES     
    5462 OS          57.6490    16.0520    13.1470 OS            1 RES     
    5463 O           81.1850     7.8320     5.0870 O             1 RES     
    5464 O           74.1550    46.1000     8.5750 O             1 RES     
    5465 O           58.2810     6.0230    12.1260 O             1 RES     
    5466 O           95.3310    24.4320     9.8760 O             1 RES     
    5467 Si          75.6960    37.4590     8.8510 Si            1 RES     
    5468 OS          52.2070    13.1450    12.8520 OS            1 RES     
    5469 O           99.6470    15.8970     1.3740 O             1 RES     
    5470 Si          65.9380    32.7240     8.1010 Si            1 RES     
    5471 Si          57.5200    44.1720    12.3700 Si            1 RES     
    5472 O           80.4440    23.0700     5.2210 O             1 RES     
    5473 O           96.7050    47.7370     5.0130 O             1 RES     
    5474 O           61.4490     7.4630     8.7760 O             1 RES     
    5475 Si          73.7950     1.6760     6.8390 Si            1 RES     
    5476 O           52.8600    30.0720     9.2260 O             1 RES     
    5477 Si          71.9800    30.9280     3.3940 Si            1 RES     
    5478 O           74.3500    18.9630     7.6670 O             1 RES     
    5479 O           58.7010    16.3040     2.2870 O             1 RES     
    5480 Si          72.5320    25.0840     4.1390 Si            1 RES     
    5481 O           53.2820     9.1310    10.0050 O             1 RES     
    5482 Si          68.5560    33.6670    11.4620 Si            1 RES     
    5483 O           89.1110    21.6780     2.3750 O             1 RES     
    5484 O           67.6690    29.6720     7.1160 O             1 RES     
    5485 Si          70.2150     6.4960     4.7090 Si            1 RES     
    5486 Si          76.0590    40.8180     5.8490 Si            1 RES     
    5487 O           78.9650    38.7850    10.2090 O             1 RES     
    5488 O           90.1500    16.6990     2.3940 O             1 RES     
    5489 Si          99.4280     0.5340     8.6050 Si            1 RES     
    5490 O           54.7720    21.7590     6.4550 O             1 RES     
    5491 O           74.2530    33.2980     7.8670 O             1 RES     
    5492 Si          60.7020    30.7490     6.1000 Si            1 RES     
    5493 O           92.6700     5.6730     5.2900 O             1 RES     
    5494 Si          64.2700    49.9640    11.6860 Si            1 RES     
    5495 O           56.6100    21.1300    10.0300 O             1 RES     
    5496 O           99.4510    11.8250    10.8060 O             1 RES     
    5497 O           91.1260    13.8420     9.8870 O             1 RES     
    5498 O           95.6810    15.0260     7.0230 O             1 RES     
    5499 O           96.7460    26.3010     8.8480 O             1 RES     
    5500 O           77.8520    30.1570     5.1630 O             1 RES     
    5501 O           64.0080    16.7380     5.3380 O             1 RES     
    5502 O           77.0560    41.8310     1.9940 O             1 RES     
    5503 Si          63.3490    24.6240     3.2190 Si            1 RES     
    5504 O           75.9020    34.8710     4.4290 O             1 RES     
    5505 O           70.1230     4.8830     4.5910 O             1 RES     
    5506 O           84.1470    15.1210    11.3000 O             1 RES     
    5507 Si          51.3730    22.1510     2.9220 Si            1 RES     
    5508 O           99.7900    25.9860     3.1710 O             1 RES     
    5509 O           82.2150    27.3290     8.7490 O             1 RES     
    5510 O           92.4190    13.5680     5.7240 O             1 RES     
    5511 O           87.2140     5.2770     9.2580 O             1 RES     
    5512 O           90.9980    23.4960     1.5910 O             1 RES     
    5513 OS          50.6460    27.9250    13.3760 OS            1 RES     
    5514 Si          50.8110    19.1590     9.6580 Si            1 RES     
    5515 O           80.5330    18.1760     4.0030 O             1 RES     
    5516 O           91.9850    33.4010     8.8860 O             1 RES     
    5517 O           73.5630    28.8290     6.0310 O             1 RES     
    5518 Si          86.8960     6.1620    10.4730 Si            1 RES     
    5519 OS          80.9060    42.8970    12.8760 OS            1 RES     
    5520 O           72.3450    33.7720    10.4280 O             1 RES     
    5521 Si          88.7720    49.4470     3.8340 Si            1 RES     
    5522 Si          70.6320    28.6790    11.6590 Si            1 RES     
    5523 O           79.1060     9.9070     8.0490 O             1 RES     
    5524 O           54.3300    16.1090     6.8260 O             1 RES     
    5525 Si          96.1970     8.4660     8.6420 Si            1 RES     
    5526 O           81.4770    20.9200    10.3250 O             1 RES     
    5527 O           73.6740    13.7090     7.1970 O             1 RES     
    5528 O           75.7850    16.0530    11.2930 O             1 RES     
    5529 Si          75.0720     2.0650    11.2810 Si            1 RES     
    5530 O           56.5130    12.3630    10.0980 O             1 RES     
    5531 O           81.2430    26.1310     6.4910 O             1 RES     
    5532 O           79.5560    43.4330     4.9100 O             1 RES     
    5533 O           55.5290    29.6980     4.5780 O             1 RES     
    5534 Si          62.1290    29.9390     9.9840 Si            1 RES     
    5535 Si          92.9810    42.5610    10.5600 Si            1 RES     
    5536 O           50.0220    14.5270     4.1100 O             1 RES     
    5537 O           77.5270     6.1070     3.8020 O             1 RES     
    5538 OS          62.7250     3.7090    12.4850 OS            1 RES     
    5539 Si          59.4180     2.8310    10.8570 Si            1 RES     
    5540 O           81.6600    36.1520    10.5500 O             1 RES     
    5541 Si          68.5290    31.0570     7.4200 Si            1 RES     
    5542 OS          72.9530    45.1110    10.9490 OS            1 RES     
    5543 O           97.5310    28.1790     7.5710 O             1 RES     
    5544 O           72.0970     2.9560     3.5790 O             1 RES     
    5545 O           73.9750    47.1680     6.4300 O             1 RES     
    5546 Si          85.6350     7.7970     5.0950 Si            1 RES     
    5547 Si          65.2560    25.1420    10.4270 Si            1 RES     
    5548 O           68.6580    35.0890    10.6360 O             1 RES     
    5549 OS          70.2660    37.5690    13.8000 OS            1 RES     
    5550 O           79.7200    18.0810    12.3670 O             1 RES     
    5551 O           76.0000    19.8770     4.2940 O             1 RES     
    5552 O           91.0400     2.2550     8.1180 O             1 RES     
    5553 Si          76.5050     9.2230     5.5330 Si            1 RES     
    5554 O           86.9120    40.4130    10.7990 O             1 RES     
    5555 O           70.7340    15.2520     4.9050 O             1 RES     
    5556 O           69.4960    18.3400    10.8120 O             1 RES     
    5557 O           72.9330     2.9620     7.0930 O             1 RES     
    5558 OS          96.3160    48.9330    13.3120 OS            1 RES     
    5559 O           75.5590    23.5770     6.4960 O             1 RES     
    5560 O           84.9440    48.6380    11.0810 O             1 RES     
    5561 Si          75.5740    19.7440    11.9030 Si            1 RES     
    5562 O           50.6750    30.5180    10.5840 O             1 RES     
    5563 Si          69.9420     6.1710     7.7720 Si            1 RES     
    5564 Si          73.1990    12.0790     3.8050 Si            1 RES     
    5565 O           80.8380     5.4450     5.9680 O             1 RES     
    5566 O           95.9100     7.5290     7.3860 O             1 RES     
    5567 Si          53.6840    12.8230    12.3480 Si            1 RES     
    5568 OS          68.8100    44.6700    12.2700 OS            1 RES     
    5569 Si          88.0060    11.3040     9.0220 Si            1 RES     
    5570 O           70.9740    36.1480     4.3800 O             1 RES     
    5571 O           83.5230    45.4890     2.9160 O             1 RES     
    5572 O           73.1790    31.3580     2.5010 O             1 RES     
    5573 Si          59.2410    45.5480     3.3790 Si            1 RES     
    5574 Si          84.3650     5.5360    12.3320 Si            1 RES     
    5575 Si          89.6160    25.8090     3.1450 Si            1 RES     
    5576 O           78.8550    16.9830     8.2740 O             1 RES     
    5577 Si          60.8730    25.4460     9.4090 Si            1 RES     
    5578 OS          52.9380    27.3670    13.5110 OS            1 RES     
    5579 OS          83.3940    45.2420    13.7960 OS            1 RES     
    5580 Si          95.8650    31.8970     2.7980 Si            1 RES     
    5581 O           93.3990     5.4610    10.9030 O             1 RES     
    5582 O           95.3100    32.5620     6.9560 O             1 RES     
    5583 O           71.8170    45.9040     5.1190 O             1 RES     
    5584 O           92.0710    47.7170     9.4400 O             1 RES     
    5585 Si          85.4420    32.0520     7.3890 Si            1 RES     
    5586 O           95.1310    14.1860     9.3770 O             1 RES     
    5587 O           63.7230     1.3210    12.2550 O             1 RES     
    5588 O           78.4180    12.2310     8.3410 O             1 RES     
    5589 O           98.1150     3.6560     3.2300 O             1 RES     
    5590 O           74.3630    21.2010     2.9820 O             1 RES     
    5591 Si          50.4750    39.2730     4.6870 Si            1 RES     
    5592 Si          99.8290    17.2240    12.6160 Si            1 RES     
    5593 O           61.8830    42.9360     5.5030 O             1 RES     
    5594 O           98.1000    18.5900     5.2710 O             1 RES     
    5595 Si          63.5760    45.1310     8.3190 Si            1 RES     
    5596 O           57.9420    29.6150     8.5510 O             1 RES     
    5597 O           69.4490    16.2870     9.2650 O             1 RES     
    5598 O           71.8720    33.0660     6.7000 O             1 RES     
    5599 Si          78.1680    32.5160     7.8900 Si            1 RES     
    5600 O           59.3260    14.7530     6.8240 O             1 RES     
    5601 Si          83.4080    23.7200     8.8770 Si            1 RES     
    5602 O           72.0920    20.6210     7.5910 O             1 RES     
    5603 O           53.4620     6.4040    10.5250 O             1 RES     
    5604 Si          87.3120    24.5400    11.4470 Si            1 RES     
    5605 O           76.2140    25.8960    11.8030 O             1 RES     
    5606 Si          89.0690    17.2800     3.3630 Si            1 RES     
    5607 O           88.6180    34.2620     4.5350 O             1 RES     
    5608 Si          87.6040    34.2130     3.3530 Si            1 RES     
    5609 O           50.7970    42.5890     7.7990 O             1 RES     
    5610 O           72.2110    13.2820     3.8790 O             1 RES     
    5611 O           53.3010    42.0190     7.2270 O             1 RES     
    5612 O           92.6960    40.5310     3.8590 O             1 RES     
    5613 Si          67.0000     5.1450     8.0970 Si            1 RES     
    5614 O           97.1890    25.8760     6.4000 O             1 RES     
    5615 O           92.6210    18.3830    10.7470 O             1 RES     
    5616 O           58.0760    15.1190     4.6190 O             1 RES     
    5617 Si          95.0950    38.4250    10.3500 Si            1 RES     
    5618 O           95.8150     0.0320     1.4580 O             1 RES     
    5619 Si          62.9980    31.8610     7.7030 Si            1 RES     
    5620 O           68.4430    18.7220     8.4660 O             1 RES     
    5621 O           74.4370    16.7460     6.5860 O             1 RES     
    5622 Si          64.9540    12.9100     6.0530 Si            1 RES     
    5623 O           64.9650    18.7910     9.9840 O             1 RES     
    5624 O           87.9870    44.9430    12.3720 O             1 RES     
    5625 Si          74.7280    26.1950    11.4530 Si            1 RES     
    5626 O           97.3630    32.9210     8.3330 O             1 RES     
    5627 O           82.0960    16.7640    11.4900 O             1 RES     
    5628 O           84.8860    47.1780    12.9650 O             1 RES     
    5629 O           62.7500    15.3170     3.5650 O             1 RES     
    5630 O           85.1600    41.7720     5.1760 O             1 RES     
    5631 O           96.3020    43.3040     9.1230 O             1 RES     
    5632 O           71.4630    14.5980     8.6160 O             1 RES     
    5633 O           88.8250    47.9060     3.5560 O             1 RES     
    5634 O           83.4650     1.9990     3.7860 O             1 RES     
    5635 O           77.3030    14.6550     8.4230 O             1 RES     
    5636 O           74.3010    27.5890    11.8080 O             1 RES     
    5637 O           68.4060    47.3430    11.6440 O             1 RES     
    5638 O           56.4100    19.6400     5.3440 O             1 RES     
    5639 O           59.7490    47.1610    13.2240 O             1 RES     
    5640 Si          98.5780    19.7920     6.0330 Si            1 RES     
    5641 Si          63.2120     6.2720     4.4060 Si            1 RES     
    5642 Si          88.8670    43.7710     3.9090 Si            1 RES     
    5643 O           66.1730    35.9180     6.1790 O             1 RES     
    5644 Si          96.9800     2.9410     3.9820 Si            1 RES     
    5645 O           66.4210    48.9450     5.2640 O             1 RES     
    5646 O           99.7980    38.4060    12.4830 O             1 RES     
    5647 Si          78.4320     0.9860     9.0180 Si            1 RES     
    5648 O           53.7910    19.2340    12.2220 O             1 RES     
    5649 Si          87.3810    14.3720     9.2660 Si            1 RES     
    5650 O           89.6090    17.1140     4.7570 O             1 RES     
    5651 O           68.9850    23.2030     4.9360 O             1 RES     
    5652 O           83.3830    29.5890     8.6530 O             1 RES     
    5653 Si          56.5040    34.3540     3.6440 Si            1 RES     
    5654 Si          71.8010    23.4750    10.1490 Si            1 RES     
    5655 O           82.1880     2.9370    11.0530 O             1 RES     
    5656 O           98.2850    37.1040     8.2830 O             1 RES     
    5657 OS          91.0400     2.3510    12.7430 OS            1 RES     
    5658 O           71.6560    15.2860     2.4880 O             1 RES     
    5659 Si          73.6110    42.4730     6.8000 Si            1 RES     
    5660 Si          89.1900    24.7630     8.9630 Si            1 RES     
    5661 OS          73.5860    47.4960    12.0860 OS            1 RES     
    5662 OS          85.6550    44.6830    12.9390 OS            1 RES     
    5663 O           88.8090    10.5150     5.0240 O             1 RES     
    5664 Si          57.5450    17.4300    12.2700 Si            1 RES     
    5665 O           61.9280    10.0130     4.3980 O             1 RES     
    5666 O           97.4460    12.9720    12.0550 O             1 RES     
    5667 O           66.4350     1.3450     6.4240 O             1 RES     
    5668 Si          60.3130    11.8920    10.4020 Si            1 RES     
    5669 OS          61.2070    32.3640    13.4470 OS            1 RES     
    5670 O           73.7810    46.8420     3.9060 O             1 RES     
    5671 OS          82.3080    40.5490    13.5250 OS            1 RES     
    5672 Si          64.6130    39.8490    10.8620 Si            1 RES     
    5673 Si          59.0190     4.2510     4.0900 Si            1 RES     
    5674 O           75.1120    14.6520     5.4390 O             1 RES     
    5675 Si          94.0140    36.7140     7.7550 Si            1 RES     
    5676 OS          98.1550    10.7840    12.7930 OS            1 RES     
    5677 OS          64.5800    10.1050    13.9600 OS            1 RES     
    5678 OS          80.2540    15.4520    12.2440 OS            1 RES     
    5679 O           65.1430    39.4530     9.4470 O             1 RES     
    5680 Si          76.1430     3.1790     5.5820 Si            1 RES     
    5681 O           50.4530     3.1480     6.2690 O             1 RES     
    5682 O           96.8350    49.3910    10.9860 O             1 RES     
    5683 O           54.0590    36.5990     8.4880 O             1 RES     
    5684 Si          71.9700    14.8470     4.0010 Si            1 RES     
    5685 Si          55.4830    21.8870    10.9520 Si            1 RES     
    5686 O           62.9610    16.0130    12.0790 O             1 RES     
    5687 Si          68.5110    45.7810    11.1700 Si            1 RES     
    5688 OS          76.1120     6.5300    13.1560 OS            1 RES     
    5689 O           78.9550    11.6580     3.8450 O             1 RES     
    5690 O           66.8570     4.4800     9.5660 O             1 RES     
    5691 O           62.2070    31.3180     6.4880 O             1 RES     
    5692 Si          53.6610    47.9890     3.2660 Si            1 RES     
    5693 O           52.3810    38.3960     9.2630 O             1 RES     
    5694 O           66.4770    43.0330     5.4360 O             1 RES     
    5695 O           58.4010    37.8400     9.9930 O             1 RES     
    5696 Si          85.2360    26.0960     9.8200 Si            1 RES     
    5697 O           78.3920    45.5220     9.3080 O             1 RES     
    5698 Si          58.7650     9.9060     8.6400 Si            1 RES     
    5699 Si          81.1860    40.2060     4.6190 Si            1 RES     
    5700 O           83.9620     9.7730    11.3540 O             1 RES     
    5701 Si          79.9290    38.9810    11.4220 Si            1 RES     
    5702 O           62.6410    40.5630    10.4970 O             1 RES     
    5703 O           96.4470    45.4640     8.5700 O             1 RES     
    5704 O           53.8460    49.6770    12.4230 O             1 RES     
    5705 O           61.9350    26.3070    10.1220 O             1 RES     
    5706 O           84.7310    37.0780     7.2970 O             1 RES     
    5707 O           59.9940    32.7270     3.7510 O             1 RES     
    5708 OS          95.7050    12.9940    13.9360 OS            1 RES     
    5709 Si          68.4620    19.7870     7.3990 Si            1 RES     
    5710 O           61.2240    35.5340     6.4810 O             1 RES     
    5711 O           93.9110    10.6470     6.2750 O             1 RES     
    5712 O           95.5200    36.9650     7.4450 O             1 RES     
    5713 O           92.3600    47.1630     6.9220 O             1 RES     
    5714 OS          71.7830    13.9840    12.3470 OS            1 RES     
    5715 Si          88.2540    43.6100     8.9210 Si            1 RES     
    5716 OS          67.5590    27.3140    12.9220 OS            1 RES     
    5717 O           53.3950    11.3600    11.7150 O             1 RES     
    5718 Si          56.1610     4.5190     2.9570 Si            1 RES     
    5719 Si          85.9990     4.7990     5.4630 Si            1 RES     
    5720 O           90.4460     8.8940    11.2490 O             1 RES     
    5721 Si          86.3780     8.7640     9.1110 Si            1 RES     
    5722 Si          51.8180    27.6390    12.3530 Si            1 RES     
    5723 OS          97.8010    37.1470    12.8070 OS            1 RES     
    5724 O           61.1920    45.1340    13.1630 O             1 RES     
    5725 O           98.1120    47.4380    10.4120 O             1 RES     
    5726 O           89.5130    20.8610     8.2070 O             1 RES     
    5727 O           57.0610     3.7190    13.2660 O             1 RES     
    5728 O           76.4280    34.1630    11.4740 O             1 RES     
    5729 Si          83.3770     3.5300     3.4640 Si            1 RES     
    5730 O           66.2090    28.5900     2.5190 O             1 RES     
    5731 O           86.1180    48.2970     8.6890 O             1 RES     
    5732 O           96.7490    17.9500     3.0500 O             1 RES     
    5733 O           91.6860    42.9810     6.6740 O             1 RES     
    5734 O           87.4760    12.5040     5.3120 O             1 RES     
    5735 Si          74.7900    13.2300     6.2040 Si            1 RES     
    5736 O           88.1530     4.6200    13.3710 O             1 RES     
    5737 O           59.6770    32.6350    11.3050 O             1 RES     
    5738 Si          83.9690    22.8690     3.4780 Si            1 RES     
    5739 O           93.9820    37.9620     9.3120 O             1 RES     
    5740 Si          62.2740    34.9140     7.4100 Si            1 RES     
    5741 O           75.0010    18.4920    11.1670 O             1 RES     
    5742 O           52.7600    24.2130    10.4020 O             1 RES     
    5743 O           92.9580    26.1660    11.8200 O             1 RES     
    5744 O           95.1440    14.4450    11.7480 O             1 RES     
    5745 Si          90.0110    39.8830     8.6920 Si            1 RES     
    5746 OS          54.8870    30.6080    12.7110 OS            1 RES     
    5747 O           86.7400    29.8300     5.2550 O             1 RES     
    5748 Si          66.6150    44.7830     8.8650 Si            1 RES     
    5749 O           64.1100    11.8590     9.6930 O             1 RES     
    5750 O           52.0850    44.1560     6.4310 O             1 RES     
    5751 OS          89.2760    49.2800    12.1610 OS            1 RES     
    5752 Si          89.0470    45.4520    11.2560 Si            1 RES     
    5753 Si          96.1120    42.6170    10.5030 Si            1 RES     
    5754 Si          65.9470     2.3680     7.5480 Si            1 RES     
    5755 O           59.2800    23.5000     7.5290 O             1 RES     
    5756 OS          90.7000    34.4120    12.2590 OS            1 RES     
    5757 OS          87.3970    49.2820    10.3440 OS            1 RES     
    5758 O           77.2990     9.9210     4.3170 O             1 RES     
    5759 O           97.5000    17.2100     9.6140 O             1 RES     
    5760 O           60.7770    40.0520     8.7900 O             1 RES     
    5761 Si          74.9320    24.8970     5.9010 Si            1 RES     
    5762 Si          96.2280    36.8130    12.7060 Si            1 RES     
    5763 OS          67.5710     7.1020    13.6460 OS            1 RES     
    5764 O           53.9580    31.7320     3.9260 O             1 RES     
    5765 O           80.0340    48.1820     5.4990 O             1 RES     
    5766 Si          52.3960     0.3410    12.1610 Si            1 RES     
    5767 Si          51.3740    24.8670    10.7920 Si            1 RES     
    5768 O           82.8560    14.0160     5.4360 O             1 RES     
    5769 O           55.0360    32.8140    11.2680 O             1 RES     
    5770 O           54.3950     1.0660     5.6080 O             1 RES     
    5771 Si          61.4700    14.6680     9.6650 Si            1 RES     
    5772 O           95.4260    12.4360     7.7160 O             1 RES     
    5773 Si          89.5160    33.9090    11.3150 Si            1 RES     
    5774 O           92.7260    45.9040    11.9400 O             1 RES     
    5775 OS          71.7830     5.7500    13.3060 OS            1 RES     
    5776 O           53.4140    40.7410     9.3500 O             1 RES     
    5777 O           84.3490    32.3610     3.7950 O             1 RES     
    5778 O           66.5320    25.6030    11.2150 O             1 RES     
    5779 O           58.3430    40.2150     9.8420 O             1 RES     
    5780 O           54.0360    25.3720     8.7120 O             1 RES     
    5781 O           80.6800    45.8030     9.3590 O             1 RES     
    5782 O           60.0900    10.7120     6.1550 O             1 RES     
    5783 O           69.1940    17.1920     5.2050 O             1 RES     
    5784 O           87.1160    48.2080    12.3700 O             1 RES     
    5785 Si          61.3670    16.3290    12.1810 Si            1 RES     
    5786 O           53.1960    13.4610     3.7560 O             1 RES     
    5787 O           54.0060    30.3250     6.5690 O             1 RES     
    5788 O           89.3020     0.3220     2.5230 O             1 RES     
    5789 Si          89.5480    34.3190     5.9030 Si            1 RES     
    5790 Si          69.5940    18.6870     4.7920 Si            1 RES     
    5791 OS          65.5400    11.8900    12.5810 OS            1 RES     
    5792 Si          53.2760    22.0430     6.8940 Si            1 RES     
    5793 Si          66.4430     3.1290    10.4140 Si            1 RES     
    5794 O           84.7450    20.4650     6.8190 O             1 RES     
    5795 O           92.7410    49.4860     7.9210 O             1 RES     
    5796 O           59.6600    25.8890     8.2980 O             1 RES     
    5797 Si          64.1900    40.4600     5.9330 Si            1 RES     
    5798 O           52.1890     7.9920     5.7940 O             1 RES     
    5799 OS          66.4940    21.9160    12.0070 OS            1 RES     
    5800 O           58.7360    23.7110    12.1360 O             1 RES     
    5801 O           59.6740     3.0890     7.3500 O             1 RES     
    5802 Si          95.4850     2.3080     9.1260 Si            1 RES     
    5803 O           84.5530     1.7420     7.1130 O             1 RES     
    5804 Si          97.6950    46.8240     4.1620 Si            1 RES     
    5805 O           59.0940    31.8780     9.0570 O             1 RES     
    5806 O           82.8540    11.6640    10.2560 O             1 RES     
    5807 O           89.9370    12.6720     5.1830 O             1 RES     
    5808 O           92.7870     7.5880     3.9020 O             1 RES     
    5809 OS          91.5110    44.6970    13.8950 OS            1 RES     
    5810 Si          53.5110    26.4870     7.6910 Si            1 RES     
    5811 O           74.8100    40.6180     2.1530 O             1 RES     
    5812 OS          78.0830    19.4000    14.1250 OS            1 RES     
    5813 Si          95.3360    48.4560     5.2530 Si            1 RES     
    5814 O           65.0890    16.2570    10.7830 O             1 RES     
    5815 O           51.7470    25.2300     4.6450 O             1 RES     
    5816 O           70.2430    49.6870    11.9420 O             1 RES     
    5817 Si          51.9550    42.6290     6.7790 Si            1 RES     
    5818 Si          71.5380     3.5220     7.4470 Si            1 RES     
    5819 O           67.2980    45.0130    10.2930 O             1 RES     
    5820 O           64.1450    39.2150     6.8920 O             1 RES     
    5821 O           60.4990    19.3050     7.6740 O             1 RES     
    5822 Si          64.9070     7.2060     6.9330 Si            1 RES     
    5823 Si          78.6810    25.7310     9.3460 Si            1 RES     
    5824 O           85.3300    30.3750     2.9760 O             1 RES     
    5825 Si          58.6830    43.2050     7.6990 Si            1 RES     
    5826 O           64.0870    29.7210     3.3030 O             1 RES     
    5827 O           83.0820    22.8120    10.2330 O             1 RES     
    5828 O           97.5190    36.2220     3.8790 O             1 RES     
    5829 Si          78.5250     6.5820    10.1990 Si            1 RES     
    5830 Si          97.4500    17.4220     4.3660 Si            1 RES     
    5831 O           78.1610    15.8470     6.3670 O             1 RES     
    5832 OS          51.1650    22.8170    14.2730 OS            1 RES     
    5833 O           94.8110     0.9100     8.5730 O             1 RES     
    5834 O           68.5750    27.3960     6.6910 O             1 RES     
    5835 O           76.1090     3.3020     3.9990 O             1 RES     
    5836 Si          92.6060    34.7230     9.4340 Si            1 RES     
    5837 Si          95.3720    10.9610     7.0310 Si            1 RES     
    5838 O           72.5860    29.5690     3.9380 O             1 RES     
    5839 Si          90.2970    31.3540     6.4800 Si            1 RES     
    5840 Si          56.0960    33.9830    10.8440 Si            1 RES     
    5841 O           62.7440    30.9830     8.8940 O             1 RES     
    5842 O           96.1210     1.2430    12.8700 O             1 RES     
    5843 O           76.2930    30.5420     3.2220 O             1 RES     
    5844 O           57.8820    24.5560     9.3200 O             1 RES     
    5845 O           77.0360    22.2950     8.3600 O             1 RES     
    5846 O           75.2950     0.7040    10.3780 O             1 RES     
    5847 Si          74.9280    17.5040     7.8380 Si            1 RES     
    5848 O           98.6180     4.1440    10.7340 O             1 RES     
    5849 O           75.6520    28.5460     7.8160 O             1 RES     
    5850 O           69.8470    24.9840     6.4890 O             1 RES     
    5851 Si          91.6370    12.8030    10.9200 Si            1 RES     
    5852 Si          85.3520     1.3890    12.1150 Si            1 RES     
    5853 Si          96.8970    37.7350     7.7620 Si            1 RES     
    5854 O           76.2440     7.4510     2.2640 O             1 RES     
    5855 O           55.3780    35.8640     6.8210 O             1 RES     
    5856 O           95.1740    27.8150     2.8680 O             1 RES     
    5857 Si          93.8770    27.3760    11.5510 Si            1 RES     
    5858 Si          62.5270     8.5340     8.2720 Si            1 RES     
    5859 O           53.5620    28.0480     7.7900 O             1 RES     
    5860 O           55.2150    22.8920     2.7460 O             1 RES     
    5861 O           96.5290    22.0670     9.2400 O             1 RES     
    5862 Si          63.1480    15.3560     5.0550 Si            1 RES     
    5863 O           74.9450    29.7810    11.9010 O             1 RES     
    5864 O           50.0590    17.7840     9.3110 O             1 RES     
    5865 O           69.1170    13.8090     9.2550 O             1 RES     
    5866 O           54.0670    37.3420     4.9070 O             1 RES     
    5867 O           86.9140    10.2500     9.4460 O             1 RES     
    5868 O           85.5640     6.3480     5.5660 O             1 RES     
    5869 OS          79.1860    38.1350    12.6570 OS            1 RES     
    5870 Si          81.8730    37.3300     3.6020 Si            1 RES     
    5871 O           92.7740     3.8650     8.6890 O             1 RES     
    5872 O           99.9610    33.5230     2.2830 O             1 RES     
    5873 O           86.2550    26.7060     8.7730 O             1 RES     
    5874 Si          64.0130    15.1700    11.1740 Si            1 RES     
    5875 OS          53.7870    16.7630    12.8830 OS            1 RES     
    5876 Si          98.5450     5.0490    12.0960 Si            1 RES     
    5877 O           90.6880    22.2130     4.0540 O             1 RES     
    5878 O           64.5790    32.1970     7.4600 O             1 RES     
    5879 O           90.8770    38.5600     8.8240 O             1 RES     
    5880 O           74.8340    43.0310     2.6420 O             1 RES     
    5881 Si          80.0510    19.2360     5.0320 Si            1 RES     
    5882 O           82.2550     8.4950     2.8570 O             1 RES     
    5883 O           95.1300    32.9420     1.8010 O             1 RES     
    5884 O           73.0200    32.1490    12.2200 O             1 RES     
    5885 Si          56.2410    43.4290     9.5200 Si            1 RES     
    5886 Si          76.1320    27.2990     4.2450 Si            1 RES     
    5887 O           89.7030    43.2250     8.3650 O             1 RES     
    5888 O           58.5980    46.3720     2.2240 O             1 RES     
    5889 Si          84.6490     3.1510     7.7220 Si            1 RES     
    5890 O           65.1550    11.3100     5.9300 O             1 RES     
    5891 Si          55.3720    10.0700     4.4590 Si            1 RES     
    5892 O           92.3490     7.4910    12.1660 O             1 RES     
    5893 O           65.4210    40.4660    12.0290 O             1 RES     
    5894 O           55.0060     4.4480     4.0530 O             1 RES     
    5895 O           69.4280    45.2850     5.8050 O             1 RES     
    5896 O           94.4440    46.5930    10.0370 O             1 RES     
    5897 O           99.3310    32.3570     9.5320 O             1 RES     
    5898 O           80.1120    26.0840     8.9200 O             1 RES     
    5899 O           60.4160     1.0990     2.8170 O             1 RES     
    5900 O           55.6430    34.8800     9.6260 O             1 RES     
    5901 O           60.6130    29.6900     9.5080 O             1 RES     
    5902 O           88.9430    30.5190     6.3560 O             1 RES     
    5903 O           60.5100     8.1880     5.4640 O             1 RES     
    5904 O           68.0080    49.7870    12.4920 O             1 RES     
    5905 O           79.9750    18.5390     6.4630 O             1 RES     
    5906 Si          93.5010     6.3350    12.2980 Si            1 RES     
    5907 O           81.0460    33.8030     5.5130 O             1 RES     
    5908 O           58.9270    11.8520    11.1040 O             1 RES     
    5909 O           72.6540     0.6510     6.3860 O             1 RES     
    5910 O           95.1230    32.2190     9.7350 O             1 RES     
    5911 O           65.4250     8.6330     6.4840 O             1 RES     
    5912 O           74.3040    33.2740     3.2250 O             1 RES     
    5913 O           99.8890    13.0660     8.7600 O             1 RES     
    5914 Si          58.1590    11.0630     5.8820 Si            1 RES     
    5915 Si          59.7230     6.6800    12.0750 Si            1 RES     
    5916 Si          78.4790     8.4120     7.7260 Si            1 RES     
    5917 Si          50.5120     7.5370    12.0020 Si            1 RES     
    5918 O           59.6710     5.6550     4.5980 O             1 RES     
    5919 O           50.6430    46.6160     2.2410 O             1 RES     
    5920 O           97.4550    13.8010     8.3070 O             1 RES     
    5921 O           68.8750    25.6890    11.5620 O             1 RES     
    5922 Si          59.6420    29.2860     3.6580 Si            1 RES     
    5923 O           56.7420    27.7270     7.4510 O             1 RES     
    5924 Si          57.3690    11.2960    10.8940 Si            1 RES     
    5925 Si          80.6730    32.5360     9.5370 Si            1 RES     
    5926 O           62.3410    33.3180     7.6750 O             1 RES     
    5927 Si          55.5320    36.0130     8.4250 Si            1 RES     
    5928 Si          73.0290    43.0570    11.1760 Si            1 RES     
    5929 Si          90.9590     8.1710     7.5530 Si            1 RES     
    5930 OS          69.6480    48.2890    13.7740 OS            1 RES     
    5931 O           84.4150    22.6970     5.0520 O             1 RES     
    5932 O           71.5930     3.0260     9.0560 O             1 RES     
    5933 Si          85.2580    14.0110    11.5060 Si            1 RES     
    5934 O           65.8700    32.0780     9.6110 O             1 RES     
    5935 O           77.1660    18.1990     2.9840 O             1 RES     
    5936 O           52.9420    29.6550     4.5650 O             1 RES     
    5937 Si          91.6730    43.7280     5.2710 Si            1 RES     
    5938 O           89.1920     0.5770     7.9150 O             1 RES     
    5939 O           62.7510    19.8360     9.1320 O             1 RES     
    5940 O           71.9460    42.2760    10.3200 O             1 RES     
    5941 O           64.1980    38.2730     2.9000 O             1 RES     
    5942 O           72.6260    36.9100    13.1670 O             1 RES     
    5943 O           79.3360    32.1020     8.8840 O             1 RES     
    5944 O           99.7930    10.4860     8.6050 O             1 RES     
    5945 O           76.2920    12.6820     9.6340 O             1 RES     
    5946 O           59.8200    25.0990    10.5220 O             1 RES     
    5947 Si          77.4390    19.6000     3.5680 Si            1 RES     
    5948 O           56.6230    14.8530     6.6910 O             1 RES     
    5949 O           58.6230    49.0540    10.4420 O             1 RES     
    5950 O           94.8180    26.8060    10.4470 O             1 RES     
    5951 O           61.7380     9.5000     1.6330 O             1 RES     
    5952 O           84.5170    24.8560     9.2050 O             1 RES     
    5953 O           70.2360     9.1000    10.6340 O             1 RES     
    5954 OS          82.3420    21.8730    12.6260 OS            1 RES     
    5955 Si          75.7150    41.7100     2.8710 Si            1 RES     
    5956 O           84.9960    19.4610     9.2060 O             1 RES     
    5957 Si          91.4990    19.5180    11.1150 Si            1 RES     
    5958 Si          65.2730    10.2900    12.5260 Si            1 RES     
    5959 O           86.2120    18.2560     7.4380 O             1 RES     
    5960 O           79.3970    36.5730     9.2700 O             1 RES     
    5961 O           55.0300    23.2810    10.2570 O             1 RES     
    5962 Si          50.3920    42.2210     4.1890 Si            1 RES     
    5963 O           52.2260    26.4020     2.4270 O             1 RES     
    5964 O           99.4230    18.8260    12.6940 O             1 RES     
    5965 O           77.1160    27.9850     5.1480 O             1 RES     
    5966 Si          58.2650    40.9430     4.4180 Si            1 RES     
    5967 O           91.1300    22.0980     6.6650 O             1 RES     
    5968 O           95.5570    31.9600     4.3400 O             1 RES     
    5969 O           50.1660    19.6860     6.1490 O             1 RES     
    5970 Si          83.2720     8.2920    11.3850 Si            1 RES     
    5971 O           72.7000     0.6170     4.0170 O             1 RES     
    5972 O           63.0960    47.7250     5.9260 O             1 RES     
    5973 Si          72.7790     1.7000     2.8520 Si            1 RES     
    5974 O           66.3630    13.3470     5.6630 O             1 RES     
    5975 O           80.9870    48.2450    10.0420 O             1 RES     
    5976 O           87.2390    49.7590     3.5030 O             1 RES     
    5977 Si          80.8900    16.7310     3.3720 Si            1 RES     
    5978 O           76.4990    44.3450     9.2110 O             1 RES     
    5979 O           99.2220    26.2600     7.9750 O             1 RES     
    5980 O           83.9070    31.6450     7.3760 O             1 RES     
    5981 O           93.4510    15.8270    10.1300 O             1 RES     
    5982 Si          96.0430    25.0580     5.6030 Si            1 RES     
    5983 O           51.8810    26.1950     7.7000 O             1 RES     
    5984 O           67.3560     2.2180    11.3970 O             1 RES     
    5985 O           57.1550    17.3080     4.0380 O             1 RES     
    5986 Si          92.4350    10.2010     5.9260 Si            1 RES     
    5987 Si          90.6900     3.0210    11.3890 Si            1 RES     
    5988 O           69.3480     0.7980     2.3270 O             1 RES     
    5989 O           69.9280    29.8800    10.9250 O             1 RES     
    5990 O           69.4570    20.9430     7.8900 O             1 RES     
    5991 O           60.7040    13.2600     9.7220 O             1 RES     
    5992 Si          50.4770     1.6020     5.9420 Si            1 RES     
    5993 O           59.4100     1.3120    10.7100 O             1 RES     
    5994 Si          68.7360    17.6360     9.5480 Si            1 RES     
    5995 O           55.7520    47.8330    12.9800 O             1 RES     
    5996 O           69.8340     7.1440     8.9810 O             1 RES     
    5997 Si          68.1230     8.5540     3.6600 Si            1 RES     
    5998 Si          58.9940    33.1040    10.0430 Si            1 RES     
    5999 O           85.6350    37.2760     4.9160 O             1 RES     
    6000 O           93.9320    30.7370     6.0400 O             1 RES     
    6001 Si          60.3410    36.8300     3.1460 Si            1 RES     
    6002 O           80.0060    34.1070    13.8750 O             1 RES     
    6003 OS          83.7480    33.1240    13.3250 OS            1 RES     
    6004 Si          57.3310    43.7630     4.9050 Si            1 RES     
    6005 O           62.4480    23.4040     3.5910 O             1 RES     
    6006 O           96.8580    41.0190     2.4920 O             1 RES     
    6007 Si          61.1820    20.0760     8.8680 Si            1 RES     
    6008 O           82.3270    36.7830     2.1510 O             1 RES     
    6009 Si          76.8970    32.7770    12.0530 Si            1 RES     
    6010 O           81.1770    38.7570     3.8720 O             1 RES     
    6011 O           92.7610    36.9040     6.8720 O             1 RES     
    6012 O           50.1790    45.8030    11.0080 O             1 RES     
    6013 O           64.9690    39.8680     4.7060 O             1 RES     
    6014 O           59.7750    30.5060     2.5650 O             1 RES     
    6015 Si          76.2080    35.7160    11.4330 Si            1 RES     
    6016 O           83.8200     1.8110    12.2470 O             1 RES     
    6017 O           82.2410    24.6310     8.4590 O             1 RES     
    6018 O           94.9250     6.9980    12.2900 O             1 RES     
    6019 Si          60.0470     6.9750     9.0140 Si            1 RES     
    6020 O           54.9290    13.9990     8.3470 O             1 RES     
    6021 Si          73.0970    34.0080     6.9800 Si            1 RES     
    6022 O           85.3680    49.2480     6.6070 O             1 RES     
    6023 O           88.6330     3.1870     8.2330 O             1 RES     
    6024 O           59.6790    38.1050     2.4130 O             1 RES     
    6025 O           74.3640    25.9410     9.8980 O             1 RES     
    6026 Si          51.3860     4.4330     6.3760 Si            1 RES     
    6027 O           86.0720    25.4030    10.9870 O             1 RES     
    6028 Si          83.3970     0.4560     4.1020 Si            1 RES     
    6029 O           97.7770    45.4010     4.5940 O             1 RES     
    6030 O           99.6460     0.9140     7.0600 O             1 RES     
    6031 Si          99.7490    42.7510     8.8430 Si            1 RES     
    6032 O           97.7090    20.8010    12.2820 O             1 RES     
    6033 O           71.0710     5.0660     7.7670 O             1 RES     
    6034 Si          67.6200     8.2770    12.5210 Si            1 RES     
    6035 O           73.8990     8.0890     8.4830 O             1 RES     
    6036 O           94.9940     6.8110     5.0230 O             1 RES     
    6037 O           88.3840    27.7090     9.6910 O             1 RES     
    6038 Si          52.3000    49.5910     9.1770 Si            1 RES     
    6039 O           61.0760    17.9080    12.0650 O             1 RES     
    6040 Si          52.4870    45.5200     5.7490 Si            1 RES     
    6041 O           55.1070    13.1130     2.0220 O             1 RES     
    6042 O           67.3130    17.3870    10.0950 O             1 RES     
    6043 O           88.8030    18.8680     3.1010 O             1 RES     
    6044 O           56.2230     5.3790     1.6200 O             1 RES     
    6045 O           83.8930    37.3990    11.2720 O             1 RES     
    6046 OS          85.5880    37.9490    13.8270 OS            1 RES     
    6047 O           99.2590    31.1290     2.4940 O             1 RES     
    6048 Si          80.0550    20.4620     9.8690 Si            1 RES     
    6049 O           56.6910    21.9270     4.9560 O             1 RES     
    6050 O           67.7340    21.6430     3.5230 O             1 RES     
    6051 O           69.7000    45.8050    10.1940 O             1 RES     
    6052 O           71.0350    10.2870     8.9720 O             1 RES     
    6053 Si          50.3040    11.6260     9.5100 Si            1 RES     
    6054 Si          97.8920    39.8850     5.9730 Si            1 RES     
    6055 Si          75.8660    44.0270    10.5700 Si            1 RES     
    6056 O           53.1940     0.0020     7.9500 O             1 RES     
    6057 O           83.6470    34.4260     4.8550 O             1 RES     
    6058 Si          80.7270    42.4020     8.4770 Si            1 RES     
    6059 Si          84.7700    37.8690     3.8180 Si            1 RES     
    6060 O           50.9940    10.8450     2.6310 O             1 RES     
    6061 O           79.2810    20.1280    11.1720 O             1 RES     
    6062 O           65.4150     7.7660     1.5950 O             1 RES     
    6063 O           68.3850    35.8390     4.7270 O             1 RES     
    6064 Si          95.2900    25.8680     9.3100 Si            1 RES     
    6065 Si          92.5050    22.3130    10.4510 Si            1 RES     
    6066 Si          65.7320    29.5360     3.7050 Si            1 RES     
    6067 Si          59.6690    47.8430     5.4930 Si            1 RES     
    6068 O           62.3740    48.9220     8.1810 O             1 RES     
    6069 O           74.6360     0.9360     7.9300 O             1 RES     
    6070 O           69.8080     3.0050     3.2320 O             1 RES     
    6071 O           85.4430     0.0010    12.9260 O             1 RES     
    6072 O           56.8130    27.9240     9.9120 O             1 RES     
    6073 O           86.6000    38.8690     6.7020 O             1 RES     
    6074 Si          60.1060    19.0830    11.7060 Si            1 RES     
    6075 O           69.5560    15.3870     7.1320 O             1 RES     
    6076 O           63.4780    47.4240     3.3610 O             1 RES     
    6077 OS          83.1620    11.7520    13.1050 OS            1 RES     
    6078 O           60.6930    26.6800     1.2410 O             1 RES     
    6079 O           72.8730    22.8310    11.1670 O             1 RES     
    6080 O           61.8470    21.1590     4.2940 O             1 RES     
    6081 Si          71.9760    12.3940    12.3550 Si            1 RES     
    6082 O           62.8560     9.6200     9.3420 O             1 RES     
    6083 Si          65.5080    38.7700     3.6850 Si            1 RES     
    6084 O           87.2780    42.6790     9.7680 O             1 RES     
    6085 O           58.5470    10.3990     4.4330 O             1 RES     
    6086 O           54.3780    46.6300     8.9120 O             1 RES     
    6087 O           79.9050    45.6210     6.1860 O             1 RES     
    6088 Si          83.6080    14.0500     6.7690 Si            1 RES     
    6089 O           67.7290    46.9900     5.8550 O             1 RES     
    6090 O           63.0630     2.0570     5.8520 O             1 RES     
    6091 O           64.9550    20.6690     8.2220 O             1 RES     
    6092 O           76.1070    41.4050     4.3750 O             1 RES     
    6093 O           76.7350    26.8440     2.9100 O             1 RES     
    6094 O           80.0560     2.9350     5.7890 O             1 RES     
    6095 O           95.2980    21.2120     4.8160 O             1 RES     
    6096 O           59.9770    10.8910     9.1250 O             1 RES     
    6097 Si          65.7720    32.3240    11.1840 Si            1 RES     
    6098 O           75.9570    32.4380     4.9530 O             1 RES     
    6099 O           99.6260    38.0500     4.0950 O             1 RES     
    6100 Si          77.7560    22.5190     3.0090 Si            1 RES     
    6101 O           56.1310    18.0340    12.6980 O             1 RES     
    6102 Si          79.6580    12.5070     4.9570 Si            1 RES     
    6103 Si          70.6900     3.4160     4.4270 Si            1 RES     
    6104 O           68.0140    37.6140     6.4480 O             1 RES     
    6105 Si          57.4400    49.6480     6.7860 Si            1 RES     
    6106 O           61.4600    42.1930     3.2080 O             1 RES     
    6107 O           57.4840    42.2850     4.2520 O             1 RES     
    6108 O           70.4090    41.3470     8.5420 O             1 RES     
    6109 O           77.7690    15.8050     3.7780 O             1 RES     
    6110 O           70.8050    22.5490     6.6200 O             1 RES     
    6111 O           97.1940     9.1690     3.9050 O             1 RES     
    6112 OS          93.1990    32.2580    11.8910 OS            1 RES     
    6113 OS          52.5250     1.7930    12.7490 OS            1 RES     
    6114 O           65.8720    31.1240     3.5680 O             1 RES     
    6115 O           74.6860     5.7720     8.6550 O             1 RES     
    6116 Si          53.3320    17.0320     2.8190 Si            1 RES     
    6117 O           96.1960    19.5610     9.2260 O             1 RES     
    6118 O           54.2990    11.6510     9.3740 O             1 RES     
    6119 Si          93.9040    20.4480     4.8120 Si            1 RES     
    6120 O           74.8680    35.8760    12.2940 O             1 RES     
    6121 O           73.6580    18.9010     3.6840 O             1 RES     
    6122 Si          64.1220    37.2970    12.4430 Si            1 RES     
    6123 Si          98.3240     3.2150     9.4960 Si            1 RES     
    6124 O           58.7600    45.0380    12.2370 O             1 RES     
    6125 Si          85.3480    34.2110     9.5120 Si            1 RES     
    6126 Si          97.0210     0.0510    12.4420 Si            1 RES     
    6127 O           69.9310    33.8980     5.2210 O             1 RES     
    6128 O           57.6010    34.5360     2.5650 O             1 RES     
    6129 O           65.1770    44.2300     2.7320 O             1 RES     
    6130 O           91.9330    37.9030     4.7360 O             1 RES     
    6131 Si          56.2890    17.4690     9.5750 Si            1 RES     
    6132 O           75.4360    11.1810    11.7760 O             1 RES     
    6133 O           60.2860     1.4390     5.2360 O             1 RES     
    6134 O           73.4720    43.8750     7.4750 O             1 RES     
    6135 O           56.0160    44.9060     9.1190 O             1 RES     
    6136 Si          62.5860     9.9290     3.0050 Si            1 RES     
    6137 O           52.3750    15.4810     5.2860 O             1 RES     
    6138 Si          55.0570    13.0090     9.6470 Si            1 RES     
    6139 O           68.5420     5.3050     7.9260 O             1 RES     
    6140 O           98.6410    43.7890     8.4790 O             1 RES     
    6141 O           61.8310    30.9040    11.1600 O             1 RES     
    6142 O           85.0670    13.4710     6.3520 O             1 RES     
    6143 Si          92.0050    38.9920     3.5840 Si            1 RES     
    6144 O           58.0640    40.0100     3.0870 O             1 RES     
    6145 Si          78.7100    37.9400     8.8920 Si            1 RES     
    6146 Si          51.4570     7.3840     7.0950 Si            1 RES     
    6147 O           69.5950    31.6930     6.4870 O             1 RES     
    6148 Si          70.2910    10.6330    10.3250 Si            1 RES     
    6149 O           99.4830     9.5720     4.3120 O             1 RES     
    6150 Si          99.2360    30.9390    10.2300 Si            1 RES     
    6151 O           79.8460    41.2250     8.0550 O             1 RES     
    6152 Si          69.0220    25.9820     7.4110 Si            1 RES     
    6153 O           73.4690    13.3370     9.5400 O             1 RES     
    6154 Si          73.9240    24.9980     8.7160 Si            1 RES     
    6155 OS          83.2710    37.9530    13.2690 OS            1 RES     
    6156 OS          72.4530    21.1830    13.0020 OS            1 RES     
    6157 O           75.8540    25.8150     5.0220 O             1 RES     
    6158 O           90.4720    31.4740     8.0220 O             1 RES     
    6159 Si          99.0790     9.2880     7.9830 Si            1 RES     
    6160 OS          56.2560     6.2770    13.5190 OS            1 RES     
    6161 Si          84.2060    40.7980     4.4520 Si            1 RES     
    6162 O           88.6100    37.7160     3.1690 O             1 RES     
    6163 Si          57.0770    20.2490     8.8390 Si            1 RES     
    6164 Si          98.9090    46.5840    11.4290 Si            1 RES     
    6165 Si          84.5520     9.9310     7.0270 Si            1 RES     
    6166 Si          70.0360    31.2220    10.1190 Si            1 RES     
    6167 O           52.8930    22.2920     2.5400 O             1 RES     
    6168 Si          77.6670    16.0710     7.8400 Si            1 RES     
    6169 O           78.8060    13.8260     5.0430 O             1 RES     
    6170 Si          74.8180    12.7050    10.9700 Si            1 RES     
    6171 Si          98.9160    33.1910     8.2340 Si            1 RES     
    6172 Si          69.3220    38.0950    12.5930 Si            1 RES     
    6173 Si          51.9380    35.8990    11.6940 Si            1 RES     
    6174 O           95.7460    37.2740    11.2740 O             1 RES     
    6175 O           59.6630    30.5690    12.2770 O             1 RES     
    6176 Si          69.9030    14.9890     8.5670 Si            1 RES     
    6177 O           75.7710     4.4830     6.4720 O             1 RES     
    6178 O           98.9850    32.2290     4.6010 O             1 RES     
    6179 Si          87.7750    39.8480     6.4840 Si            1 RES     
    6180 O           58.1810     1.0180     6.6000 O             1 RES     
    6181 Si          79.5330    33.3360     5.4390 Si            1 RES     
    6182 O           96.2350    23.4670     5.7550 O             1 RES     
    6183 Si          67.2150    28.3100     6.4770 Si            1 RES     
    6184 O           73.2530     7.7300     5.9480 O             1 RES     
    6185 O           70.2230    41.7250     6.0320 O             1 RES     
    6186 Si          64.1060     2.9270    12.3560 Si            1 RES     
    6187 O           69.4250    26.0820     8.9530 O             1 RES     
    6188 Si          57.2080    48.9900     9.7760 Si            1 RES     
    6189 OS          63.0180    37.7460    13.3970 OS            1 RES     
    6190 Si          99.0280    16.6680     9.7360 Si            1 RES     
    6191 O           88.7140    39.7180     7.7470 O             1 RES     
    6192 Si          80.7840    46.8420     5.9520 Si            1 RES     
    6193 O           60.4830    29.8580     4.8470 O             1 RES     
    6194 O           93.3200    41.9460     1.6670 O             1 RES     
    6195 Si          68.2410    12.9120    10.1490 Si            1 RES     
    6196 O           60.7840    43.1810    10.3760 O             1 RES     
    6197 O           92.2450    42.8690     9.2390 O             1 RES     
    6198 Si          78.5000    22.7930     8.3570 Si            1 RES     
    6199 O           54.2370    21.0310    10.8790 O             1 RES     
    6200 O           81.8450     8.4730    11.9550 O             1 RES     
    6201 O           94.0220    22.2570     9.9290 O             1 RES     
    6202 Si          89.1410    49.3650     6.8780 Si            1 RES     
    6203 OS          60.8590    15.6080    13.4570 OS            1 RES     
    6204 Si          55.3790     0.2450     4.5480 Si            1 RES     
    6205 O           58.0870    10.3600     7.2540 O             1 RES     
    6206 O           79.9120    43.3700     9.5960 O             1 RES     
    6207 Si          93.3470    17.3420     9.7490 Si            1 RES     
    6208 O           71.2180    38.5560     4.1250 O             1 RES     
    6209 Si          96.2780    18.2610    10.0530 Si            1 RES     
    6210 O           69.3690    39.5920     7.2420 O             1 RES     
    6211 O           97.3990    13.5140     4.6950 O             1 RES     
    6212 Si          79.8150    33.5000    12.2720 Si            1 RES     
    6213 O           79.7090     4.6080     3.9520 O             1 RES     
    6214 O           74.4790     6.5760     3.9720 O             1 RES     
    6215 Si          95.4830     0.4720     2.9760 Si            1 RES     
    6216 O           92.9600    21.7040     4.9030 O             1 RES     
    6217 O           61.2310    19.0010     2.7990 O             1 RES     
    6218 Si          80.8700     8.1510     3.5780 Si            1 RES     
    6219 Si          60.7240    44.5390     9.5680 Si            1 RES     
    6220 O           94.5910     3.2770    10.0920 O             1 RES     
    6221 OS          90.6880    12.9890    12.1640 OS            1 RES     
    6222 O           73.7620    34.0750     5.5450 O             1 RES     
    6223 O           78.5770    19.4320     4.6810 O             1 RES     
    6224 Si          98.8450    32.4750     3.0400 Si            1 RES     
    6225 O           52.2640    28.7650    11.3580 O             1 RES     
    6226 O           58.7090    18.4050    12.0580 O             1 RES     
    6227 Si          86.6600    29.8290     3.7120 Si            1 RES     
    6228 O           74.6190    21.3980     7.7070 O             1 RES     
    6229 Si          89.7760    27.3710    10.4760 Si            1 RES     
    6230 OS          98.4250    30.9370    11.5870 OS            1 RES     
    6231 O           86.1050     3.2680     8.2910 O             1 RES     
    6232 O           62.4430     1.3040     8.2790 O             1 RES     
    6233 Si          83.4360    16.4340    10.8380 Si            1 RES     
    6234 Si          80.7530     4.1730     5.0870 Si            1 RES     
    6235 O           56.1070    38.0600     5.8620 O             1 RES     
    6236 O           88.6680    36.4770     8.9480 O             1 RES     
    6237 Si          61.1630     9.6020     5.7720 Si            1 RES     
    6238 Si          90.3730    14.4940     8.7190 Si            1 RES     
    6239 O           99.6810    32.3530     7.0340 O             1 RES     
    6240 OS          64.2170    22.5440    13.1760 OS            1 RES     
    6241 O           83.6960    15.5260     7.1440 O             1 RES     
    6242 O           84.6540    49.6130     3.8450 O             1 RES     
    6243 O           50.6790    30.3410     5.3820 O             1 RES     
    6244 Si          69.0850    48.6460    12.2470 Si            1 RES     
    6245 Si          72.1510     2.9900    10.5480 Si            1 RES     
    6246 O           84.7300    36.8210     2.4400 O             1 RES     
    6247 O           52.4910    18.3390     2.9200 O             1 RES     
    6248 Si          96.3210    41.5570     3.9180 Si            1 RES     
    6249 O           85.5150    12.7300     1.6720 O             1 RES     
    6250 O           70.6750    35.7400     9.5880 O             1 RES     
    6251 O           94.1660    26.3470     8.2340 O             1 RES     
    6252 Si          50.5010    25.4290     7.9210 Si            1 RES     
    6253 O           75.2210    39.4880     5.9300 O             1 RES     
    6254 OS          96.3090    35.2350    12.6710 OS            1 RES     
    6255 O           69.1550     7.3510     3.9290 O             1 RES     
    6256 O           74.3180    25.4750     7.2570 O             1 RES     
    6257 O           94.5330    42.4470    10.6150 O             1 RES     
    6258 O           82.8890    37.2560     8.9580 O             1 RES     
    6259 OS          51.4300     7.6250    13.2710 OS            1 RES     
    6260 Si          60.0770    18.5520     6.3800 Si            1 RES     
    6261 Si          65.4110    12.2030     8.9330 Si            1 RES     
    6262 Si          73.5250    22.0570    12.3530 Si            1 RES     
    6263 O           82.6580    29.0700    10.7970 O             1 RES     
    6264 O           68.9780    11.5120    10.0640 O             1 RES     
    6265 OS          75.6930    19.3670    13.4870 OS            1 RES     
    6266 O           92.1530     9.8200     4.4030 O             1 RES     
    6267 OS          81.5440    17.1520    13.7880 OS            1 RES     
    6268 O           68.3820     7.7760    11.1990 O             1 RES     
    6269 Si          69.9120    25.9010    10.4390 Si            1 RES     
    6270 Si          71.2670    39.6860     3.0300 Si            1 RES     
    6271 O           60.3610    44.5950     2.8460 O             1 RES     
    6272 O           69.7400    45.9700     3.4200 O             1 RES     
    6273 Si          68.8430    10.6020     5.8770 Si            1 RES     
    6274 O           61.3070    24.0840     8.6510 O             1 RES     
    6275 OS          71.1670     1.4560    13.9310 OS            1 RES     
    6276 O           58.0970    29.2030     4.1690 O             1 RES     
    6277 O           83.8360    10.8010     2.9710 O             1 RES     
    6278 O           51.1100    20.6060     3.1090 O             1 RES     
    6279 Si          96.7980    20.7630     8.3390 Si            1 RES     
    6280 O           62.9400    38.4750     8.8170 O             1 RES     
    6281 Si          79.6600    44.8580    10.0510 Si            1 RES     
    6282 O           61.2120    15.4640     8.3510 O             1 RES     
    6283 Si          89.6190     2.0610     8.6460 Si            1 RES     
    6284 OS          69.3910    39.6610    12.7410 OS            1 RES     
    6285 O           97.5620     7.4470     5.5700 O             1 RES     
    6286 Si          89.2700    36.7440    10.3940 Si            1 RES     
    6287 O           93.0340    18.0030     8.3440 O             1 RES     
    6288 Si          81.7660     6.8110     9.2550 Si            1 RES     
    6289 O           52.4310    20.7180     6.6690 O             1 RES     
    6290 Si          91.7730    44.6900    12.3280 Si            1 RES     
    6291 O           78.3720    33.8490     7.0030 O             1 RES     
    6292 OS          62.9090    27.3060    12.5350 OS            1 RES     
    6293 Si          54.1990     5.0560    10.8450 Si            1 RES     
    6294 O           89.9540     5.4880     5.1340 O             1 RES     
    6295 Si          52.1290    14.5270     4.0690 Si            1 RES     
    6296 Si          73.8080     8.7590     7.0580 Si            1 RES     
    6297 O           65.0930     0.7780     4.4410 O             1 RES     
    6298 O           84.8950     4.1750     6.5650 O             1 RES     
    6299 OS          84.3920    29.4680    12.5620 OS            1 RES     
    6300 O           53.3300    22.7720     8.3380 O             1 RES     
    6301 O           68.1330     9.5050     2.4330 O             1 RES     
    6302 O           62.2920    44.5360     9.1110 O             1 RES     
    6303 O           56.9350    20.8710     7.3810 O             1 RES     
    6304 Si          58.2440    37.4110     8.3920 Si            1 RES     
    6305 OS          75.8330    15.4440    13.8280 OS            1 RES     
    6306 Si          63.5490    34.3190    11.9030 Si            1 RES     
    6307 Si          69.7110     7.5830    10.4450 Si            1 RES     
    6308 Si          78.6080    15.3720     4.9640 Si            1 RES     
    6309 O           89.9930     4.1720     3.0720 O             1 RES     
    6310 Si          75.0340    32.0940     8.5620 Si            1 RES     
    6311 O           93.6290    33.2150     5.0040 O             1 RES     
    6312 Si          61.3430    41.5240     4.6710 Si            1 RES     
    6313 Si          77.0130    13.1390     8.3330 Si            1 RES     
    6314 Si          98.9600    13.6160     4.9470 Si            1 RES     
    6315 O           76.9220    29.1920     9.9540 O             1 RES     
    6316 Si          56.3490    26.5680     6.4490 Si            1 RES     
    6317 O           76.2180     3.1580    10.9840 O             1 RES     
    6318 O           83.2120    16.3800     9.3320 O             1 RES     
    6319 OS          56.4260    34.7250    12.1420 OS            1 RES     
    6320 O           69.1830    48.4110     2.8480 O             1 RES     
    6321 Si          52.8540    46.5740     8.6460 Si            1 RES     
    6322 O           90.5630    35.5950     5.7950 O             1 RES     
    6323 O           83.2630    10.6490     7.6910 O             1 RES     
    6324 O           94.8170    49.4930     6.4370 O             1 RES     
    6325 O           65.8050     0.2400    11.7960 O             1 RES     
    6326 Si          79.1690    40.2680     6.9740 Si            1 RES     
    6327 O           74.2300    32.0940     9.9360 O             1 RES     
    6328 OS          86.0060    14.0500    12.9430 OS            1 RES     
    6329 Si          54.1400    31.8930    12.2360 Si            1 RES     
    6330 O           63.9600    35.7890    11.8600 O             1 RES     
    6331 O           60.1560    17.0980     6.7790 O             1 RES     
    6332 O           81.4100    38.4720    11.0010 O             1 RES     
    6333 O           66.3110     9.1870    12.1930 O             1 RES     
    6334 O           99.7160     6.1130    11.9960 O             1 RES     
    6335 Si          96.2190     6.7850     6.0930 Si            1 RES     
    6336 OS          99.4500     8.6740    12.1600 OS            1 RES     
    6337 O           50.5590    24.8310     9.4250 O             1 RES     
    6338 O           81.0190    12.8100     4.2520 O             1 RES     
    6339 O           92.5120    13.8110     3.3200 O             1 RES     
    6340 O           94.9820    35.0040     3.9540 O             1 RES     
    6341 Si          97.8900    40.3320     9.3920 Si            1 RES     
    6342 OS          90.7650    19.2600    12.4870 OS            1 RES     
    6343 O           99.3310    34.6780     8.0710 O             1 RES     
    6344 O           53.8620    16.9500     1.4150 O             1 RES     
    6345 O           56.5610     9.2230     3.8240 O             1 RES     
    6346 O           84.6850    12.5290    11.3780 O             1 RES     
    6347 Si          74.1050    39.4900    10.4800 Si            1 RES     
    6348 O           83.2570     0.2650     5.6660 O             1 RES     
    6349 O           72.7900     9.8900     7.1890 O             1 RES     
    6350 O           82.6950    35.6060     6.7950 O             1 RES     
    6351 OS          55.9340    28.2390    12.2320 OS            1 RES     
    6352 O           79.9530    15.9870     4.5410 O             1 RES     
    6353 Si          95.8740    13.8780     8.0790 Si            1 RES     
    6354 O           93.1760    24.2670    13.5710 O             1 RES     
    6355 O           84.1640    17.8210    10.9570 O             1 RES     
    6356 Si          99.1160    20.2060    11.9690 Si            1 RES     
    6357 O           65.7400    10.8380     8.1330 O             1 RES     
    6358 Si          55.7440    46.3750     9.5310 Si            1 RES     
    6359 O           88.2740    24.3050    10.1730 O             1 RES     
    6360 O           93.1520     1.7600     6.8610 O             1 RES     
    6361 O           74.4440    16.8930     9.2070 O             1 RES     
    6362 Si          97.1230    44.1060     8.0430 Si            1 RES     
    6363 Si          82.3110    13.8020     4.0170 Si            1 RES     
    6364 O           77.0840     0.2090     8.7460 O             1 RES     
    6365 Si          92.5260    24.7440    12.2770 Si            1 RES     
    6366 O           98.5480     9.5350     6.5140 O             1 RES     
    6367 O           82.0830     5.2400     9.5810 O             1 RES     
    6368 Si          80.7770     6.9750     6.3810 Si            1 RES     
    6369 O           82.6560    17.3460     3.5770 O             1 RES     
    6370 Si          72.9830    46.9500     5.2330 Si            1 RES     
    6371 Si          60.7820    22.8880     7.5800 Si            1 RES     
    6372 O           87.9150    35.4680     2.4360 O             1 RES     
    6373 Si          78.5620    10.2560     3.2980 Si            1 RES     
    6374 O           89.5970     8.4610     6.8880 O             1 RES     
    6375 O           78.0860    27.0470    12.8440 O             1 RES     
    6376 Si          62.4540     0.0520     9.2110 Si            1 RES     
    6377 O           75.1730     9.3400     6.4250 O             1 RES     
    6378 O           83.3330    44.0330    10.0310 O             1 RES     
    6379 O           91.8390    24.0760     5.2260 O             1 RES     
    6380 Si          87.3600    17.2670     7.9960 Si            1 RES     
    6381 Si          78.2610    28.7300     5.8670 Si            1 RES     
    6382 Si          80.2820     8.1480    12.0040 Si            1 RES     
    6383 O           53.8730     2.3210     7.7110 O             1 RES     
    6384 O           64.0220    10.2330    11.5570 O             1 RES     
    6385 Si          72.5800    13.5060     8.3100 Si            1 RES     
    6386 O           99.1180     1.8730     9.3660 O             1 RES     
    6387 Si          98.9490    14.0960     8.0240 Si            1 RES     
    6388 Si          96.8790     3.8960     6.8860 Si            1 RES     
    6389 O           85.4650    32.8620     6.0240 O             1 RES     
    6390 O           77.1510    37.9040     8.7450 O             1 RES     
    6391 Si          67.7620    23.1290     3.9820 Si            1 RES     
    6392 O           76.4320    17.0710     7.9550 O             1 RES     
    6393 OS          73.7870    28.9780    13.9750 OS            1 RES     
    6394 O           64.9030    22.0870     6.1110 O             1 RES     
    6395 O           66.5420    43.3890     8.1150 O             1 RES     
    6396 O           50.9190    22.9880     4.2150 O             1 RES     
    6397 Si          67.7200    13.2740     4.9340 Si            1 RES     
    6398 O           55.1420    42.4580     8.9610 O             1 RES     
    6399 O           84.5830     8.8080     5.8920 O             1 RES     
    6400 O           50.6930    22.6550     1.5560 O             1 RES     
    6401 O           77.9120    44.4110     6.9660 O             1 RES     
    6402 Si          98.7060    12.1020    12.1750 Si            1 RES     
    6403 O           90.0080     4.3710    11.6840 O             1 RES     
    6404 O           68.3840    14.6960     5.1130 O             1 RES     
    6405 O           55.2630    46.3220    11.0400 O             1 RES     
    6406 O           97.8390    21.1070     5.3680 O             1 RES     
    6407 Si          76.3970    15.0080    12.4620 Si            1 RES     
    6408 O           92.3170    26.3140     6.2530 O             1 RES     
    6409 O           75.3350     7.2390    10.7060 O             1 RES     
    6410 Si          81.4810    26.0880     8.1040 Si            1 RES     
    6411 O           99.2420    36.2610     5.9950 O             1 RES     
    6412 O           96.9280     2.4810     9.7930 O             1 RES     
    6413 O           86.5390    30.8970     7.4160 O             1 RES     
    6414 O           82.5680    21.7720     6.0700 O             1 RES     
    6415 O           51.2920    19.6120     8.2810 O             1 RES     
    6416 O           74.1240    12.2340     5.0580 O             1 RES     
    6417 Si          53.8400     3.8590     8.0030 Si            1 RES     
    6418 Si          52.7330     7.5870     9.8720 Si            1 RES     
    6419 O           57.5060    25.9090    11.4880 O             1 RES     
    6420 Si          58.4160    24.7610     7.8710 Si            1 RES     
    6421 OS          51.2370    16.9980    13.2580 OS            1 RES     
    6422 O           64.4070     2.7210     7.7180 O             1 RES     
    6423 O           75.0570    40.4720    11.2770 O             1 RES     
    6424 O           71.3450    31.9200     4.4470 O             1 RES     
    6425 Si          61.9350    39.3810     9.6200 Si            1 RES     
    6426 Si          62.9040     2.3990     7.3500 Si            1 RES     
    6427 O           84.6530     4.1580     4.0910 O             1 RES     
    6428 Si          70.6580    32.5660     5.7020 Si            1 RES     
    6429 O           59.9550     6.7670    10.5320 O             1 RES     
    6430 O           56.3270    49.7210     5.6860 O             1 RES     
    6431 O           78.0230    23.1170     4.3880 O             1 RES     
    6432 Si          63.5940     1.3770     4.4050 Si            1 RES     
    6433 O           76.0460    12.7870     7.0520 O             1 RES     
    6434 Si          58.1330    39.0510    11.0320 Si            1 RES     
    6435 O           79.3400     0.0210     9.9030 O             1 RES     
    6436 OS          70.6290    19.5290    12.8240 OS            1 RES     
    6437 O           96.3110    16.6070     5.0460 O             1 RES     
    6438 O           85.1690     9.0720     8.2150 O             1 RES     
    6439 O           72.7640    36.2150    10.5800 O             1 RES     
    6440 O           71.7240     4.2780    11.3080 O             1 RES     
    6441 O           80.1630    19.2540     8.8420 O             1 RES     
    6442 Si          65.8320    17.6140    10.7090 Si            1 RES     
    6443 O           99.4760    39.6740     5.8810 O             1 RES     
    6444 O           67.5210    13.0590     3.3260 O             1 RES     
    6445 Si          63.2090    43.8680     5.5150 Si            1 RES     
    6446 O           86.7560    28.3420     3.2740 O             1 RES     
    6447 O           50.1930     8.2110     7.5440 O             1 RES     
    6448 O           90.9160     8.9220     9.0310 O             1 RES     
    6449 Si          85.5870    48.5000    12.5270 Si            1 RES     
    6450 OS          82.5230    30.9610    12.8910 OS            1 RES     
    6451 Si          76.3850    30.8540     4.7940 Si            1 RES     
    6452 Si          71.2500     0.8260    12.5180 Si            1 RES     
    6453 O           77.9370    28.7950     7.4510 O             1 RES     
    6454 Si          82.3110     1.7010    11.9900 Si            1 RES     
    6455 O           70.8080     3.1280     6.0350 O             1 RES     
    6456 O           90.3960    19.4270    10.0400 O             1 RES     
    6457 O           58.1620    44.6540     3.9810 O             1 RES     
    6458 O           81.2400    47.1840     7.4300 O             1 RES     
    6459 O           73.7120     2.8520    10.9510 O             1 RES     
    6460 Si          71.9530    49.8670     5.1650 Si            1 RES     
    6461 O           78.4080    32.9060    12.4150 O             1 RES     
    6462 Si          52.6000    39.6720    10.1250 Si            1 RES     
    6463 Si          64.2540    20.1500     9.5970 Si            1 RES     
    6464 Si          83.7110    11.3420    11.5940 Si            1 RES     
    6465 O           52.3200    36.0940    10.2110 O             1 RES     
    6466 Si          83.6340    36.2480     7.9020 Si            1 RES     
    6467 OS          60.7800     5.6640    12.5930 OS            1 RES     
    6468 O           74.1490    43.2310    10.0890 O             1 RES     
    6469 O           93.1390    28.5830    10.8060 O             1 RES     
    6470 O           97.2410     5.9820    11.9870 O             1 RES     
    6471 Si          63.1380    10.7930    10.3950 Si            1 RES     
    6472 O           67.1380    33.0670    11.5390 O             1 RES     
    6473 Si          76.4910    29.8150    11.3490 Si            1 RES     
    6474 O           68.5480    12.0030     5.4170 O             1 RES     
    6475 O           81.5450    35.9710     4.5650 O             1 RES     
    6476 Si          50.7740    47.0520     3.7350 Si            1 RES     
    6477 O           52.5520     7.5940     3.3250 O             1 RES     
    6478 Si          95.9920    32.1560     8.3110 Si            1 RES     
    6479 O           94.3380    46.0900     7.4270 O             1 RES     
    6480 Si          93.0130    29.5670     5.5960 Si            1 RES     
    6481 Si          93.2570     4.0900    10.1390 Si            1 RES     
    6482 OS          56.7530    10.6080    12.1240 OS            1 RES     
    6483 Si          77.4220     3.6870    10.1520 Si            1 RES     
    6484 O           67.8060     0.4220     4.2120 O             1 RES     
    6485 O           88.2740     6.0910    11.2360 O             1 RES     
    6486 O           54.5930    39.7580     5.1360 O             1 RES     
    6487 Si          78.9100     1.9180     6.1170 Si            1 RES     
    6488 O           61.7560     6.7500     4.0410 O             1 RES     
    6489 Si          74.7800    37.9610     5.9250 Si            1 RES     
    6490 O           59.0370     8.2650     8.6630 O             1 RES     
    6491 O           74.0770    12.4170     2.5300 O             1 RES     
    6492 O           87.7560    32.9340     2.4400 O             1 RES     
    6493 OS          54.5950    49.1400    14.5170 OS            1 RES     
    6494 O           74.6140    21.0140    11.8510 O             1 RES     
    6495 O           72.9150    25.2500     2.6540 O             1 RES     
    6496 O           60.7970    47.4620     6.5500 O             1 RES     
    6497 Si          71.8370    41.1810     9.1520 Si            1 RES     
    6498 O           59.1480     7.9230     3.5290 O             1 RES     
    6499 Si          90.5370     9.9940    10.0790 Si            1 RES     
    6500 O           55.7350     5.3190    11.2190 O             1 RES     
    6501 O           51.9570    38.9090     4.9630 O             1 RES     
    6502 O           89.2870    40.1540    10.0700 O             1 RES     
    6503 O           53.8470    17.0590     4.3490 O             1 RES     
    6504 O           67.8950    41.6230     7.1700 O             1 RES     
    6505 Si          91.1600    32.1080     9.2800 Si            1 RES     
    6506 Si          57.5300    18.7090     4.5500 Si            1 RES     
    6507 O           89.2430    10.7900     9.7430 O             1 RES     
    6508 O           88.8950    14.7690     9.3090 O             1 RES     
    6509 Si          82.5590    37.3940    10.4550 Si            1 RES     
    6510 O           86.1270    46.5280     6.8370 O             1 RES     
    6511 O           85.6710     7.5290     3.6010 O             1 RES     
    6512 Si          91.2410     5.5420     6.0670 Si            1 RES     
    6513 O           94.3530    47.2570     5.2990 O             1 RES     
    6514 O           71.0960    11.5510    11.3260 O             1 RES     
    6515 O           86.3140    47.7270     2.8030 O             1 RES     
    6516 Si          53.2690     7.8770     4.6890 Si            1 RES     
    6517 Si          94.3260    32.8360    10.9620 Si            1 RES     
    6518 O           55.9080    44.4830     4.7470 O             1 RES     
    6519 O           87.8670    48.5510     6.9750 O             1 RES     
    6520 Si          97.7890    29.7170     7.8140 Si            1 RES     
    6521 O           60.5360    45.8010    10.8160 O             1 RES     
    6522 O           80.0420     6.9110     3.1560 O             1 RES     
    6523 O           79.3280    25.3040     5.3200 O             1 RES     
    6524 O           52.6590     4.1220     4.7300 O             1 RES     
    6525 O           53.6920    39.0040     2.9030 O             1 RES     
    6526 O           96.0630     7.6860    10.0550 O             1 RES     
    6527 Si          92.8980    39.7550    11.7930 Si            1 RES     
    6528 Si          94.6300    32.1160     5.5620 Si            1 RES     
    6529 Si          56.6730    28.6420     4.1830 Si            1 RES     
    6530 O           85.2920    12.1580     4.2350 O             1 RES     
    6531 O           73.1660    15.8090     4.5290 O             1 RES     
    6532 OS          86.2370    33.6100    13.1820 OS            1 RES     
    6533 O           57.7920    19.5000     3.2450 O             1 RES     
    6534 Si          89.0220    39.1650     3.7950 Si            1 RES     
    6535 O           88.6900    39.3440     5.2950 O             1 RES     
    6536 Si          70.5840    46.4850     9.0350 Si            1 RES     
    6537 Si          76.1220     6.8770     3.7100 Si            1 RES     
    6538 O           70.6050    27.2480    10.9330 O             1 RES     
    6539 O           92.4750    43.0040     4.0240 O             1 RES     
    6540 O           98.6060    16.6050     3.7510 O             1 RES     
    6541 OS          81.7590    28.7610    13.1040 OS            1 RES     
    6542 O           67.4440    10.2380     6.5740 O             1 RES     
    6543 O           79.8050     9.3610     3.5760 O             1 RES     
    6544 O           74.9300     2.2730     5.9240 O             1 RES     
    6545 O           78.3520    10.3970     1.7180 O             1 RES     
    6546 O           95.0480    49.2860     3.9300 O             1 RES     
    6547 O           98.9510    41.4400     9.0160 O             1 RES     
    6548 Si          73.2200    44.8880     8.7860 Si            1 RES     
    6549 O           96.5110    30.6330     8.0910 O             1 RES     
    6550 Si          52.9310    20.3950    11.4460 Si            1 RES     
    6551 O           87.0440    36.4570     7.0990 O             1 RES     
    6552 OS          73.2340    45.3400    13.3730 OS            1 RES     
    6553 Si          54.5790    17.8720    12.0130 Si            1 RES     
    6554 O           81.9420    31.6430     9.0490 O             1 RES     
    6555 Si          70.8980    21.6300     7.9010 Si            1 RES     
    6556 O           70.6810    24.5750    10.5290 O             1 RES     
    6557 Si          99.8680    39.7510    11.6200 Si            1 RES     
    6558 O           96.8890    41.2540    10.2250 O             1 RES     
    6559 Si          91.9310    29.5470    10.6970 Si            1 RES     
    6560 O           50.9740     5.9620     6.5700 O             1 RES     
    6561 O           65.6560    34.3010     8.0550 O             1 RES     
    6562 O           61.1760    49.7570    10.1540 O             1 RES     
    6563 O           66.9850    20.3870     6.9930 O             1 RES     
    6564 O           71.1540    22.3680     9.2110 O             1 RES     
    6565 Si          57.0370     4.9610    12.2210 Si            1 RES     
    6566 O           59.8820    35.6720     2.0770 O             1 RES     
    6567 O           52.4470     0.3440    10.6000 O             1 RES     
    6568 Si          84.4530    45.6960    12.7250 Si            1 RES     
    6569 O           85.4760     0.9680    10.6270 O             1 RES     
    6570 O           88.3100    16.9160     6.8450 O             1 RES     
    6571 Si          99.5990    10.9130     3.3680 Si            1 RES     
    6572 O           80.3820    40.4390    11.8390 O             1 RES     
    6573 O           52.3780    48.0490     9.1800 O             1 RES     
    6574 O           61.9200    35.5030     8.8340 O             1 RES     
    6575 Si          61.6610    42.2820    11.3350 Si            1 RES     
    6576 O           66.2840     2.2140     9.1100 O             1 RES     
    6577 O           78.8800    23.1380     6.8910 O             1 RES     
    6578 Si          65.1530     8.2330     3.0780 Si            1 RES     
    6579 O           87.6080    16.6840     3.1480 O             1 RES     
    6580 O           66.5280    23.4710     4.8550 O             1 RES     
    6581 O           52.0400    19.3430    10.6480 O             1 RES     
    6582 O           76.6770    32.2300     8.4070 O             1 RES     
    6583 O           84.8490    45.1810     8.5100 O             1 RES     
    6584 O           94.2890    39.3050    11.3820 O             1 RES     
    6585 O           83.8490    20.4930    11.2560 O             1 RES     
    6586 O           92.6690    41.1440    11.1220 O             1 RES     
    6587 O           51.5370    26.3480    11.4820 O             1 RES     
    6588 O           81.1460    46.0030     2.2060 O             1 RES     
    6589 O           56.7110    37.0250     8.4600 O             1 RES     
    6590 O           90.4520    26.0420     4.4160 O             1 RES     
    6591 Si          51.4310    29.3570     4.3530 Si            1 RES     
    6592 Si          79.4410    44.1440     6.3630 Si            1 RES     
    6593 Si          84.5620    37.2000    12.6940 Si            1 RES     
    6594 O           65.4150    17.9690     3.7480 O             1 RES     
    6595 O           98.6890    29.9460     9.1440 O             1 RES     
    6596 Si          69.7040    35.1190     4.3010 Si            1 RES     
    6597 Si          59.2350    40.2780     8.5050 Si            1 RES     
    6598 O           60.1700    22.6780     3.4770 O             1 RES     
    6599 O           78.0260    48.4980     3.9550 O             1 RES     
    6600 Si          60.2590     7.0960     4.3300 Si            1 RES     
    6601 Si          60.7680     0.3680     4.1590 Si            1 RES     
    6602 O           57.4330    33.4430    10.3300 O             1 RES     
    6603 O           87.5930    12.8270     9.0240 O             1 RES     
    6604 O           89.2760    49.7930     5.2960 O             1 RES     
    6605 Si          90.4220    22.1860     8.0240 Si            1 RES     
    6606 O           91.5440    30.2860     5.8490 O             1 RES     
    6607 Si          65.1180    23.4980     5.5180 Si            1 RES     
    6608 O           87.2250    44.6220     8.1630 O             1 RES     
    6609 Si          87.4620    29.9450     6.6480 Si            1 RES     
    6610 O           78.2940     2.3970     9.6980 O             1 RES     
    6611 Si          99.9060    16.3460     2.8790 Si            1 RES     
    6612 O           52.1370    21.5170    12.1680 O             1 RES     
    6613 O           93.6060    34.1830    10.4770 O             1 RES     
    6614 Si          90.0440    22.8680     2.7750 Si            1 RES     
    6615 Si          80.3540    49.4740    11.0060 Si            1 RES     
    6616 O           60.4660    28.0500     3.3230 O             1 RES     
    6617 O           93.5030    29.4090     4.0760 O             1 RES     
    6618 O           62.3350    34.3870    10.9070 O             1 RES     
    6619 Si          80.2830    35.4870    10.0540 Si            1 RES     
    6620 O           51.5180     7.7760    10.8100 O             1 RES     
    6621 OS          63.9350    48.6380    12.4890 OS            1 RES     
    6622 O           61.8470    15.4370     5.8870 O             1 RES     
    6623 Si          86.3330    41.9210    10.7280 Si            1 RES     
    6624 Si          85.4250    49.3560     9.7630 Si            1 RES     
    6625 O           70.1260    10.3950     6.6900 O             1 RES     
    6626 O           92.1540     3.4420    10.9540 O             1 RES     
    6627 OS          98.7590     4.2680    13.4230 OS            1 RES     
    6628 O           84.3070    45.7400    11.1810 O             1 RES     
    6629 Si          78.9580    19.7090    12.6810 Si            1 RES     
    6630 O           63.5450     2.5430     3.3690 O             1 RES     
    6631 Si          60.8420    26.5980     2.8430 Si            1 RES     
    6632 Si          70.2770    23.7320     5.6520 Si            1 RES     
    6633 Si          64.4350    38.4700     8.2500 Si            1 RES     
    6634 O           64.3810    38.4590    11.4540 O             1 RES     
    6635 Si          90.9010     7.9910    12.3730 Si            1 RES     
    6636 Si          54.0140    12.4090     2.8490 Si            1 RES     
    6637 O           96.4900     5.3760     6.6270 O             1 RES     
    6638 O           93.7220     5.6280     2.8890 O             1 RES     
    6639 OS          59.7740     8.0690    12.8280 OS            1 RES     
    6640 O           61.2780    22.8880     6.1010 O             1 RES     
    6641 Si          84.9060    19.1140     7.6960 Si            1 RES     
    6642 O           64.3030     7.0030     3.5270 O             1 RES     
    6643 O           57.6360     4.7540     3.4860 O             1 RES     
    6644 O           51.1770    36.5940     7.9670 O             1 RES     
    6645 Si          91.8900    36.6090     5.6030 Si            1 RES     
    6646 Si          58.3270    24.6850    10.8860 Si            1 RES     
    6647 Si          98.5580    37.0190     4.7550 Si            1 RES     
    6648 O           68.0280    24.1480     2.7820 O             1 RES     
    6649 O           88.2120    40.3700     3.1680 O             1 RES     
    6650 O           63.2290    18.9340     4.1960 O             1 RES     
    6651 O           51.5240    42.1600     5.3490 O             1 RES     
    6652 O           84.2080    41.4020     2.9950 O             1 RES     
    6653 O           59.9340    30.2440     7.3410 O             1 RES     
    6654 O           52.0630    15.5610     2.9380 O             1 RES     
    6655 Si          77.0240    28.3330     8.6310 Si            1 RES     
    6656 OS          88.5380    40.3870    12.5310 OS            1 RES     
    6657 O           85.8430     5.7330    11.5410 O             1 RES     
    6658 O           77.5350     2.5990     5.9240 O             1 RES     
    6659 Si          93.6470     6.3850     4.3100 Si            1 RES     
    6660 O           92.4490    45.0810     5.6010 O             1 RES     
    6661 O           88.6840    34.5900     7.1850 O             1 RES     
    6662 Si          93.7680    26.7680     6.7440 Si            1 RES     
    6663 O           54.9090    17.5310    10.4690 O             1 RES     
    6664 Si          81.4390    21.9590     5.0050 Si            1 RES     
    6665 Si          71.4930    10.7350     7.5580 Si            1 RES     
    6666 O           63.9710     6.4620     5.8890 O             1 RES     
    6667 O           83.0330    13.1450     8.0570 O             1 RES     
    6668 Si          84.9240    33.4730     4.7240 Si            1 RES     
    6669 OS          76.3210    32.7020    13.5690 OS            1 RES     
    6670 Si          81.5440    41.4570    12.4750 Si            1 RES     
    6671 O           79.3740    43.0310     2.4190 O             1 RES     
    6672 O           75.4890    13.7300    12.0520 O             1 RES     
    6673 Si          91.1940    25.4280     5.6740 Si            1 RES     
    6674 Si          75.0190    33.6200     4.5810 Si            1 RES     
    6675 O           75.8520    37.3180     4.9610 O             1 RES     
    6676 O           76.2680    22.5560     2.5550 O             1 RES     
    6677 O           83.7020     3.5210     8.8710 O             1 RES     
    6678 Si          99.5320    36.2110     7.5480 Si            1 RES     
    6679 O           57.9020    12.8950     5.8120 O             1 RES     
    6680 Si          82.6620    21.5750    11.0900 Si            1 RES     
    6681 Si          91.8410    37.7970     9.8630 Si            1 RES     
    6682 O           74.8970    38.6820     9.4090 O             1 RES     
    6683 O           69.4320    30.9940     8.6450 O             1 RES     
    6684 O           73.0340     6.4600    10.7360 O             1 RES     
    6685 Si          56.1230    21.0220     6.0700 Si            1 RES     
    6686 O           76.2580     7.8970     4.8800 O             1 RES     
    6687 O           74.7020    27.8820     4.0000 O             1 RES     
    6688 O           56.7870    43.4910    11.0880 O             1 RES     
    6689 O           54.7200    26.2960     6.7230 O             1 RES     
    6690 O           87.7030    28.5370     7.3720 O             1 RES     
    6691 O           84.9560    33.9470    11.0150 O             1 RES     
    6692 O           64.4000    21.2030    10.7780 O             1 RES     
    6693 OS          67.2170    24.9120    13.6390 OS            1 RES     
    6694 O           54.4340    46.6510     3.6400 O             1 RES     
    6695 O           80.7400    41.4030     3.7310 O             1 RES     
    6696 O           54.3840    13.3880    11.0640 O             1 RES     
    6697 O           72.1030    11.6210    13.7130 O             1 RES     
    6698 Si          81.4340    47.1230     9.0250 Si            1 RES     
    6699 OS          86.8030    42.6740    12.0850 OS            1 RES     
    6700 Si          72.1270    35.1590     9.6950 Si            1 RES     
    6701 Si          54.3300    41.3140     8.1820 Si            1 RES     
    6702 O           90.7490    28.5730    10.2950 O             1 RES     
    6703 O           82.6930    40.5850     4.9870 O             1 RES     
    6704 O           81.9860     3.9110     4.1460 O             1 RES     
    6705 O           95.5510     9.8530     8.1410 O             1 RES     
    6706 Si          80.2600    26.5190     5.2240 Si            1 RES     
    6707 Si          80.8330    16.8930    12.4020 Si            1 RES     
    6708 O           83.2690     3.5440     1.8200 O             1 RES     
    6709 Si          83.1600    28.3150     9.5480 Si            1 RES     
    6710 OS          94.0770    47.9320    12.2840 OS            1 RES     
    6711 O           97.5480    38.0060     5.6180 O             1 RES     
    6712 Si          87.6450    27.2860     8.3550 Si            1 RES     
    6713 OS          77.5640    24.5850    13.4620 OS            1 RES     
    6714 O           57.1940    24.1080     3.5390 O             1 RES     
    6715 Si          66.4750     0.4530     5.0370 Si            1 RES     
    6716 OS          69.0150    33.9640    12.9490 OS            1 RES     
    6717 Si          63.7360    46.8480     4.7960 Si            1 RES     
    6718 O           95.7160     3.1720     7.7260 O             1 RES     
    6719 O           97.2460    43.8840     6.4930 O             1 RES     
    6720 O           83.8920     7.0090    12.1530 O             1 RES     
    6721 Si          89.0750     5.0900     3.8950 Si            1 RES     
    6722 O           57.5480    21.7370     2.2120 O             1 RES     
    6723 O           88.7150    11.9880     2.8450 O             1 RES     
    6724 O           67.3960    45.5620     7.7220 O             1 RES     
    6725 Si          75.4570     0.0150     8.9280 Si            1 RES     
    6726 O           76.8410    31.3830    11.3970 O             1 RES     
    6727 Si          56.6870    28.7520     8.6050 Si            1 RES     
    6728 O           72.9350     8.4130     3.4420 O             1 RES     
    6729 O           89.6580    23.4910     8.2180 O             1 RES     
    6730 O           90.5220    13.4140     7.5850 O             1 RES     
    6731 O           62.5910    40.7200     5.2870 O             1 RES     
    6732 OS          79.9960    21.1650    13.4540 OS            1 RES     
    6733 Si          91.0860    12.8460     6.2010 Si            1 RES     
    6734 Si          66.5360    42.3980     6.8450 Si            1 RES     
    6735 O           55.2850    29.5070     8.5800 O             1 RES     
    6736 Si          95.8050    26.2980     2.8180 Si            1 RES     
    6737 O           63.0470    46.5060     7.9250 O             1 RES     
    6738 O           50.7180    49.8240     8.9760 O             1 RES     
    6739 Si          61.1980    35.2150    10.2120 Si            1 RES     
    6740 O           66.1250    27.2630     7.1250 O             1 RES     
    6741 O           92.0090     8.9310     6.7160 O             1 RES     
    6742 O           79.4600     7.4260     7.0500 O             1 RES     
    6743 Si          74.4940    16.1220     5.1530 Si            1 RES     
    6744 O           64.2950    24.3120     4.4240 O             1 RES     
    6745 O           79.1570    32.0700     6.3030 O             1 RES     
    6746 O           66.2070    42.0650     2.8460 O             1 RES     
    6747 Si          59.1930     2.1070     6.1930 Si            1 RES     
    6748 O           72.3780    10.9030     3.1270 O             1 RES     
    6749 O           79.5450    27.8690     5.5900 O             1 RES     
    6750 Si          59.7130    35.8030     6.0890 Si            1 RES     
    6751 O           86.1380    34.2730     4.0100 O             1 RES     
    6752 O           88.8820    42.7470     2.5550 O             1 RES     
    6753 O           91.4980     4.0980     6.5750 O             1 RES     
    6754 O           94.7810    41.7280     3.7870 O             1 RES     
    6755 Si          71.5530    37.3940     5.0980 Si            1 RES     
    6756 O           65.2540    46.7190     5.0130 O             1 RES     
    6757 Si          98.3050     8.8110     5.0710 Si            1 RES     
    6758 Si          69.3380    36.4260     9.9850 Si            1 RES     
    6759 O           97.7060     8.7760     8.5610 O             1 RES     
    6760 O           66.0610     6.3310     7.6540 O             1 RES     
    6761 O           98.3560    10.4680     2.3570 O             1 RES     
    6762 Si          57.5970    15.8860     3.3550 Si            1 RES     
    6763 Si          83.3320    42.4600    10.1280 Si            1 RES     
    6764 Si          96.0100    36.0040     3.3990 Si            1 RES     
    6765 O           96.9380    40.5590     4.9240 O             1 RES     
    6766 Si          64.4050    18.2450     4.9420 Si            1 RES     
    6767 O           96.1040    11.4080     5.6420 O             1 RES     
    6768 O           77.3830     8.8200     6.7370 O             1 RES     
    6769 O           81.8700    15.0560     3.2500 O             1 RES     
    6770 Si          65.9070    10.0890     6.7220 Si            1 RES     
    6771 O           60.8390    15.5770    10.8400 O             1 RES     
    6772 Si          53.8790    23.8550     9.3030 Si            1 RES     
    6773 O           60.9570    21.5610     8.4690 O             1 RES     
    6774 Si          57.0870    27.4220    11.3940 Si            1 RES     
    6775 O           92.1170    20.9600    11.0440 O             1 RES     
    6776 O           91.2090     6.6220     7.2350 O             1 RES     
    6777 Si          53.2300    16.7320     5.8630 Si            1 RES     
    6778 O           75.0490    41.8660     6.4780 O             1 RES     
    6779 Si          51.2730    44.7730    10.5840 Si            1 RES     
    6780 O           52.6120    46.4420     7.0790 O             1 RES     
    6781 O           63.6390    49.8840    10.2120 O             1 RES     
    6782 O           80.6700    34.1810     9.2810 O             1 RES     
    6783 Si          91.1270    42.6480     8.1450 Si            1 RES     
    6784 O           90.0150     6.7220    12.7820 O             1 RES     
    6785 OS          96.5220    14.8410    13.6800 OS            1 RES     
    6786 O           69.5030    37.4470    11.1780 O             1 RES     
    6787 O           90.1420    18.5980     7.4890 O             1 RES     
    6788 O           56.4810    45.2430    12.8770 O             1 RES     
    6789 O           53.6000    44.9390     4.7370 O             1 RES     
    6790 O           90.1310    32.9500    10.1810 O             1 RES     
    6791 Si          76.6890    16.7210     3.0580 Si            1 RES     
    6792 O           57.4210    33.3580     4.5400 O             1 RES     
    6793 O           97.3600    32.4420     2.6270 O             1 RES     
    6794 O           88.3920    45.2230     3.4960 O             1 RES     
    6795 O           52.3880    18.0540     6.4230 O             1 RES     
    6796 O           75.3700    36.4550     2.4690 O             1 RES     
    6797 O           83.4470    13.1420     3.1830 O             1 RES     
    6798 O           74.0410    23.1650    13.5520 O             1 RES     
    6799 O           86.7380    34.8560     9.1230 O             1 RES     
    6800 O           93.6660    35.3340     8.4330 O             1 RES     
    6801 O           89.8860     2.2040    10.2160 O             1 RES     
    6802 OS          99.6020    12.7850    13.2680 OS            1 RES     
    6803 O           61.1720    18.9820     5.3790 O             1 RES     
    6804 O           64.0480     9.3350     3.0620 O             1 RES     
    6805 O           92.7380    34.8950     2.7400 O             1 RES     
    6806 O           95.4570    30.3800     2.5570 O             1 RES     
    6807 O           84.2480    35.0790     8.7640 O             1 RES     
    6808 O           64.3800    26.3200    10.8220 O             1 RES     
    6809 Si          55.3480    49.4170    12.7330 Si            1 RES     
    6810 O           91.5300    11.3990     6.3670 O             1 RES     
    6811 O           96.0850    35.4200     1.9540 O             1 RES     
    6812 Si          61.4050    22.6560     4.4670 Si            1 RES     
    6813 Si          55.4440    46.3220    12.6150 Si            1 RES     
    6814 O           97.9650     3.8760     8.0230 O             1 RES     
    6815 O           72.6100    24.2770     9.1200 O             1 RES     
    6816 O           58.7410     3.2920     5.2770 O             1 RES     
    6817 O           93.1120    13.3500    10.8740 O             1 RES     
    6818 O           90.3440    48.4660     7.4730 O             1 RES     
    6819 OS          53.4810     4.3130    11.9250 OS            1 RES     
    6820 OS          65.4450    37.0720    13.3770 OS            1 RES     
    6821 O           80.5520    32.6320    11.0970 O             1 RES     
    6822 O           64.9040    13.0700     7.7000 O             1 RES     
    6823 Si          93.4640    34.5120     4.1050 Si            1 RES     
    6824 O           87.2750    41.3190     6.3480 O             1 RES     
    6825 O           66.5790     8.1120     3.7590 O             1 RES     
    6826 O           94.9030    17.5790     9.8250 O             1 RES     
    6827 O           92.4170    23.6620    11.1840 O             1 RES     
    6828 Si          61.8210    19.6120     4.0960 Si            1 RES     
    6829 O           54.2290     4.2180     9.5200 O             1 RES     
    6830 O           61.9240     3.5670     7.9060 O             1 RES     
    6831 Si          73.2640    28.3340     4.5650 Si            1 RES     
    6832 Si          60.6550    15.6260     6.9070 Si            1 RES     
    6833 Si          66.6240    47.4700     4.8540 Si            1 RES     
    6834 O           92.4230    43.5150    11.6360 O             1 RES     
    6835 O           94.6300    13.0840     4.7050 O             1 RES     
    6836 O           74.8870    23.7760     8.7800 O             1 RES     
    6837 Si          94.1340    14.4970    10.5390 Si            1 RES     
    6838 O           51.7890    11.3740     9.7400 O             1 RES     
    6839 Si          86.3550    48.1240     7.1680 Si            1 RES     
    6840 O           60.2310    49.0210     4.5630 O             1 RES     
    6841 O           78.3610    24.1750     9.0730 O             1 RES     
    6842 O           70.6590    43.6390     4.2780 O             1 RES     
    6843 Si          69.3750    41.1540     7.3020 Si            1 RES     
    6844 O           80.9560    11.5940     8.6360 O             1 RES     
    6845 OS          68.8340     9.1030    13.2000 OS            1 RES     
    6846 OS          68.5960    17.9340    13.0090 OS            1 RES     
    6847 O           96.4730     1.5150     3.5410 O             1 RES     
    6848 O           62.2390    25.8070     3.0760 O             1 RES     
    6849 O           84.3740    21.7230     2.4900 O             1 RES     
    6850 O           57.1170    49.6020     8.2970 O             1 RES     
    6851 O           57.2630    40.2660     5.4760 O             1 RES     
    6852 Si          55.9150    39.6130     6.0160 Si            1 RES     
    6853 O           53.6420    48.2090     1.7190 O             1 RES     
    6854 Si          59.3260    30.2780     8.7720 Si            1 RES     
    6855 O           71.8550    12.2470     7.6560 O             1 RES     
    6856 Si          82.0220    45.5090     3.4310 Si            1 RES     
    6857 Si          76.3280    36.2830     3.8650 Si            1 RES     
    6858 Si          79.2960    49.2110     4.6370 Si            1 RES     
    6859 Si          59.8470    49.8200    11.0250 Si            1 RES     
    6860 O           73.2350    37.5940     5.5630 O             1 RES     
    6861 O           54.4610     4.4630     6.6550 O             1 RES     
    6862 O           87.6840     4.5540     4.2990 O             1 RES     
    6863 O           58.1540    43.7040     6.2390 O             1 RES     
    6864 O           66.5850     3.8740     7.1990 O             1 RES     
    6865 Si          93.4070    14.0150     4.5790 Si            1 RES     
    6866 O           79.2980    38.8270     7.6790 O             1 RES     
    6867 O           79.3870    21.7350     9.2020 O             1 RES     
    6868 Si          69.1950    49.8120     3.6240 Si            1 RES     
    6869 O           88.6720    38.0910    11.0390 O             1 RES     
    6870 Si          87.7770    35.5230     8.0530 Si            1 RES     
    6871 O           50.8420    23.7000    11.6950 O             1 RES     
    6872 Si          95.3090    46.5390     8.6930 Si            1 RES     
    6873 O           90.1670    32.8790     5.9980 O             1 RES     
    6874 O           99.4920    12.2080     4.3130 O             1 RES     
    6875 Si          93.2470    18.1450     6.8110 Si            1 RES     
    6876 O           51.2610    45.9670     4.7330 O             1 RES     
    6877 O           70.5560     6.5140    11.2540 O             1 RES     
    6878 Si          96.4700    21.9070     5.5860 Si            1 RES     
    6879 O           83.7270     4.7470    11.2180 O             1 RES     
    6880 O           98.7680    39.6940    10.5490 O             1 RES     
    6881 Si          53.4020     1.0840     6.7640 Si            1 RES     
    6882 O           71.3330     1.8710    11.3530 O             1 RES     
    6883 O           85.5060    11.1090     6.4490 O             1 RES     
    6884 O           76.7580     4.1720     8.6430 O             1 RES     
    6885 OS          94.5140    28.1680    12.7980 OS            1 RES     
    6886 O           87.1250     4.6340     6.7400 O             1 RES     
    6887 Si          92.0090     8.7670     3.2600 Si            1 RES     
    6888 Si          96.1000    12.5440     4.5270 Si            1 RES     
    6889 OS          99.5030    40.8540    12.6370 OS            1 RES     
    6890 O           61.7300    11.3630    10.8470 O             1 RES     
    6891 Si          60.5060     3.9990     8.3070 Si            1 RES     
    6892 O           76.4340    42.8610    11.3620 O             1 RES     
    6893 OS          60.2690    20.2770    12.7150 OS            1 RES     
    6894 O           54.0880     6.5780     5.0410 O             1 RES     
    6895 Si          54.7960    45.1350     3.8250 Si            1 RES     
    6896 Si          67.2500    36.7620     5.3500 Si            1 RES     
    6897 O           72.6580    35.0170     8.1920 O             1 RES     
    6898 O           54.7760    11.3850     3.7570 O             1 RES     
    6899 Si          52.1730    30.1660    10.6390 Si            1 RES     
    6900 OS          79.6660     9.5910    12.2180 OS            1 RES     
    6901 O           53.1690    11.5260     1.8630 O             1 RES     
    6902 Si          51.5830    19.4170     6.7290 Si            1 RES     
    6903 Si          54.1910    30.4610     4.9740 Si            1 RES     
    6904 O           68.7420    19.2920     3.6040 O             1 RES     
    6905 OS          79.6860    44.8840    11.6080 OS            1 RES     
    6906 Si          71.1900    42.2330     4.8640 Si            1 RES     
    6907 O           80.7800    20.5740     4.9990 O             1 RES     
    6908 O           69.1700    19.3410     6.1340 O             1 RES     
    6909 Si          71.9210     5.8130    11.6850 Si            1 RES     
    6910 O           69.2280    34.6030     2.8800 O             1 RES     
    6911 Si          54.1090     5.0000     5.1770 Si            1 RES     
    6912 O           56.3600    18.8940     8.8740 O             1 RES     
    6913 O           56.2940     0.6990     3.4020 O             1 RES     
    6914 O           65.1280     3.2530    11.2180 O             1 RES     
    6915 Si          74.5940    16.9940    10.8350 Si            1 RES     
    6916 Si          62.2190    47.6710     7.2280 Si            1 RES     
    6917 O           87.6340    43.1750     4.6860 O             1 RES     
    6918 OS          90.8040     9.0420    13.7160 OS            1 RES     
    6919 Si          77.3070    45.2360     8.2250 Si            1 RES     
    6920 O           83.9980    22.9060     7.6760 O             1 RES     
    6921 O           95.1190    37.2770     3.0810 O             1 RES     
    6922 O           56.8140    47.4990     9.5180 O             1 RES     
    6923 O           64.2680    43.1000     4.5660 O             1 RES     
    6924 O           91.9410    38.7310    11.1050 O             1 RES     
    6925 O           55.3760    40.2880     7.4140 O             1 RES     
    6926 O           90.1690    43.8500     4.6990 O             1 RES     
    6927 O           77.7100    40.7150     6.5120 O             1 RES     
    6928 O           90.9140    41.0570     8.2180 O             1 RES     
    6929 O           80.0460    40.2740     5.7160 O             1 RES     
    6930 O           89.6660    27.1110    12.0460 O             1 RES     
    6931 O           67.3190    47.0070     3.5200 O             1 RES     
    6932 Si          82.9580     4.0070    10.1090 Si            1 RES     
    6933 Si          84.8320    34.0840    12.5900 Si            1 RES     
    6934 OS          57.6280    43.2180    13.5850 OS            1 RES     
    6935 Si          97.7210    26.6370     7.6180 Si            1 RES     
    6936 O           80.9160    26.5840     3.7620 O             1 RES     
    6937 O           73.9220    42.3280    12.3240 O             1 RES     
    6938 OS          75.8880    40.5100    13.6960 OS            1 RES     
    6939 O           86.9150    15.8830     8.6820 O             1 RES     
    6940 O           71.1230    47.8380     9.4230 O             1 RES     
    6941 O           94.2260     1.4090     2.5910 O             1 RES     
    6942 O           71.3940    24.2170     4.6260 O             1 RES     
    6943 OS          88.1040    25.3190    12.6240 OS            1 RES     
    6944 Si          82.5640    11.8050     8.6730 Si            1 RES     
    6945 O           83.7820    18.0900     7.4940 O             1 RES     
    6946 OS          59.2800    39.5730    11.9060 OS            1 RES     
    6947 O           51.9720     1.2120     6.1930 O             1 RES     
    6948 O           96.1200    47.9080     8.9550 O             1 RES     
    6949 O           65.0400    45.0910     8.8960 O             1 RES     
    6950 O           90.8230    25.8370     1.9520 O             1 RES     
    6951 O           55.1570    33.7200     3.2020 O             1 RES     
    6952 Si          93.0790    47.3120    11.1950 Si            1 RES     
    6953 O           71.8820    18.2290     2.1210 O             1 RES     
    6954 O           59.7870    41.1050     4.7360 O             1 RES     
    6955 O           56.1870    10.7460     5.5900 O             1 RES     
    6956 O           84.0590    49.7060     8.3830 O             1 RES     
    6957 O           96.9490    42.9200     4.2110 O             1 RES     
    6958 O           90.5380    39.4770     3.5280 O             1 RES     
    6959 O           75.0980    48.5330     8.5770 O             1 RES     
    6960 Si          83.8420    45.4100     9.7360 Si            1 RES     
    6961 O           51.0700    29.6330     2.7850 O             1 RES     
    6962 O           81.7480    46.3360     4.7500 O             1 RES     
    6963 O           95.9950    25.4950     4.1030 O             1 RES     
    6964 Si          74.4620    20.2280     4.2260 Si            1 RES     
    6965 O           51.2180    40.0580    10.7650 O             1 RES     
    6966 O           99.7400    19.9800    10.4620 O             1 RES     
    6967 O           86.5850     7.6310    10.1330 O             1 RES     
    6968 O           82.3760    49.8430     3.1810 O             1 RES     
    6969 OS          79.5430    49.3210    12.4220 OS            1 RES     
    6970 Si          88.2170    48.4220    11.3390 Si            1 RES     
    6971 O           71.5430    31.5880     9.9880 O             1 RES     
    6972 O           84.2360    27.1980    10.1070 O             1 RES     
    6973 Si          78.9930     5.7800     3.1930 Si            1 RES     
    6974 O           66.7080    12.7920     9.7260 O             1 RES     
    6975 OS          58.3120    28.2320    12.0050 OS            1 RES     
    6976 Si          67.5100    25.8340    12.3960 Si            1 RES     
    6977 O           63.1120    45.4360     5.0930 O             1 RES     
    6978 O           58.6580    38.8890     7.8230 O             1 RES     
    6979 O           75.4570    30.2240     5.8030 O             1 RES     
    6980 OS          65.4610    30.9980    12.0200 OS            1 RES     
    6981 OS          70.9830    17.0100    12.4260 OS            1 RES     
    6982 O           52.5790    23.0990     5.9300 O             1 RES     
    6983 Si          73.6140    20.2550     7.2040 Si            1 RES     
    6984 O           62.8580    28.5260    10.3000 O             1 RES     
    6985 Si          99.4750    31.2930     5.8120 Si            1 RES     
    6986 O           80.2560     7.0160    13.1400 O             1 RES     
    6987 O           51.0510    42.4950     2.7780 O             1 RES     
    6988 O           97.2880    39.8280     7.4040 O             1 RES     
    6989 Si          68.5590    46.0310     6.8330 Si            1 RES     
    6990 Si          84.5940    12.1700     2.8700 Si            1 RES     
    6991 Si          72.8780    32.3050    10.6540 Si            1 RES     
    6992 O           90.5280    15.8970     7.9670 O             1 RES     
    6993 O           99.8640    21.4210    12.6100 O             1 RES     
    6994 Si          92.2390     3.0160     7.4680 Si            1 RES     
    6995 OS          53.7080    32.8340    13.4430 OS            1 RES     
    6996 O           52.5300    34.7780    12.6110 O             1 RES     
    6997 O           99.6160    16.5430    11.2260 O             1 RES     
    6998 Si          77.6710    25.6370    12.2540 Si            1 RES     
    6999 O           59.4760    25.8230     3.2250 O             1 RES     
    7000 OS          66.1200    18.1080    12.2320 OS            1 RES     
    7001 Si          52.5000    36.8800     8.8330 Si            1 RES     
    7002 O           60.4580    19.5140    10.2270 O             1 RES     
    7003 O           81.5910     0.4320    11.3760 O             1 RES     
    7004 O           56.2520     3.0190     2.5250 O             1 RES     
    7005 O           73.7620    20.4510     5.6460 O             1 RES     
    7006 O           56.4440    28.1370     2.6900 O             1 RES     
    7007 Si          82.9600    16.8100     7.8490 Si            1 RES     
    7008 O           95.8420    12.2230     2.9200 O             1 RES     
    7009 Si          82.2490    34.8590     5.3880 Si            1 RES     
    7010 O           93.5730    19.3770     5.9410 O             1 RES     
    7011 O           91.4800    11.2340    10.4330 O             1 RES     
    7012 O           77.1300    19.9590    11.9050 O             1 RES     
    7013 O           65.5340    25.4820     8.9350 O             1 RES     
    7014 O           78.6790    23.3450     2.1370 O             1 RES     
    7015 O           94.5210    17.3100     6.5560 O             1 RES     
    7016 O           63.6740    44.1950     7.0730 O             1 RES     
    7017 OS          64.3730    14.0060    12.1490 OS            1 RES     
    7018 O           65.2320    24.6720     6.5390 O             1 RES     
    7019 O           60.0290     5.5380     8.3100 O             1 RES     
    7020 Si          75.5300    22.6310     7.8570 Si            1 RES     
    7021 O           52.1790    47.9090     3.7720 O             1 RES     
    7022 Si          78.9950    23.7520     5.4270 Si            1 RES     
    7023 Si          53.1650    10.6790    10.1300 Si            1 RES     
    7024 O           66.2890    28.8230     5.1010 O             1 RES     
    7025 O           67.3520    32.1840     7.5460 O             1 RES     
    7026 O           84.8070    39.4040     4.0380 O             1 RES     
    7027 Si          86.5260    42.5080     5.6500 Si            1 RES     
    7028 O           69.9540     6.7290     6.2850 O             1 RES     
    7029 OS          54.6190    12.9200    13.5930 OS            1 RES     
    7030 O           52.3390     4.1420     7.6210 O             1 RES     
    7031 O           91.9660    30.8780     9.8350 O             1 RES     
    7032 Si          85.8660    49.2400     2.9200 Si            1 RES     
    7033 O           58.7220    18.7280     5.6150 O             1 RES     
    7034 O           64.6250     3.0450    13.8430 O             1 RES     
    7035 Si          85.9630    37.4350     6.4760 Si            1 RES     
    7036 Si          55.4570    15.2780     7.5350 Si            1 RES     
    7037 OS          77.9400    14.5790    12.6080 OS            1 RES     
    7038 Si          93.3240    41.8310     3.2860 Si            1 RES     
    7039 Si          93.4030    46.2690     6.1900 Si            1 RES     
    7040 Si          79.6460    11.3040     7.7860 Si            1 RES     
    7041 O           86.5260    14.3320    10.5830 O             1 RES     
    7042 O           86.0060    43.7990     6.4990 O             1 RES     
    7043 Si          58.0120    14.4310     6.0600 Si            1 RES     
    7044 O           88.2490    18.3300     8.8490 O             1 RES     
    7045 O           93.7310    19.8350     3.3930 O             1 RES     
    7046 O           77.6680    35.9060     3.0870 O             1 RES     
    7047 O           50.4900    43.5340    10.0180 O             1 RES     
    7048 O           63.6420    35.4190     6.9260 O             1 RES     
    7049 O           62.7540    11.4440     2.6230 O             1 RES     
    7050 Si          62.9910    27.1330    10.9580 Si            1 RES     
    7051 Si          73.8630    45.8620    11.9930 Si            1 RES     
    7052 O           72.2970    48.3590     5.3120 O             1 RES     
    7053 Si          75.9610     5.2320     7.8690 Si            1 RES     
    7054 O           74.2940     1.8930     2.7680 O             1 RES     
    7055 O           66.4760    37.7040     4.3180 O             1 RES     
    7056 O           88.9960     6.4630     3.1540 O             1 RES     
    7057 Si          60.7150    31.6810    12.0640 Si            1 RES     
    7058 O           84.5510    35.6090    12.8760 O             1 RES     
    7059 Si          90.2900    17.2020     6.6710 Si            1 RES     
    7060 O           50.1750    17.8730     2.5890 O             1 RES     
    7061 O           94.9450    25.3230     1.8730 O             1 RES     
    7062 O           75.4540    16.6890     4.0590 O             1 RES     
    7063 O           71.2320    41.1290     3.7910 O             1 RES     
    7064 O           97.9910    20.1320     7.5240 O             1 RES     
    7065 O           78.9260     1.4310     7.6320 O             1 RES     
    7066 Si          74.1400     6.9550     9.6920 Si            1 RES     
    7067 Si          60.0460    45.8610    12.3140 Si            1 RES     
    7068 O           69.5920    46.6460     7.8140 O             1 RES     
    7069 O           99.2820    13.9790     6.4470 O             1 RES     
    7070 Si          82.7610    30.8370     8.0090 Si            1 RES     
    7071 OS          86.0280    19.1090    11.6440 OS            1 RES     
    7072 O           75.9280    36.2850     9.9660 O             1 RES     
    7073 Si          58.0890     9.1650     3.4690 Si            1 RES     
    7074 O           57.4840    43.0870     8.6110 O             1 RES     
    7075 O           51.1320    27.7500     4.4110 O             1 RES     
    7076 Si          91.8280    48.1740     7.9800 Si            1 RES     
    7077 Si          88.2600     9.3290     6.6120 Si            1 RES     
    7078 O           90.4440    45.0910    11.7210 O             1 RES     
    7079 O           72.1720    28.9880    12.0870 O             1 RES     
    7080 O           72.5850    42.3680     5.5940 O             1 RES     
    7081 O           56.3640     0.9860    13.3560 O             1 RES     
    7082 O           71.1010    18.6210     4.3820 O             1 RES     
    7083 O           78.6020    25.5380    10.9880 O             1 RES     
    7084 Si          95.1290    16.0420     5.8950 Si            1 RES     
    7085 OS          98.0560    45.4530    12.2910 OS            1 RES     
    7086 O           63.8490    13.9900     5.4690 O             1 RES     
    7087 Si          91.6930    22.5180     5.2840 Si            1 RES     
    7088 O           57.7250    10.1780     9.7690 O             1 RES     
    7089 O           65.1780    41.4640     6.7210 O             1 RES     
    7090 O           50.5540    24.3760     6.7230 O             1 RES     
    7091 Si          88.2510    39.6490    11.1770 Si            1 RES     
    7092 O           63.2470     4.9020     3.6700 O             1 RES     
    7093 O           87.0490     8.3670     5.3170 O             1 RES     
    7094 O           68.5340     9.5700     4.7320 O             1 RES     
    7095 O           78.1010     7.5450     8.9600 O             1 RES     
    7096 O           54.4450    49.1510     3.9220 O             1 RES     
    7097 Si          84.1500     0.2340     6.9910 Si            1 RES     
    7098 O           78.9690     0.5530     5.4100 O             1 RES     
    7099 O           75.2910    45.2430    11.4690 O             1 RES     
    7100 OS          98.5810     0.0460    12.8100 OS            1 RES     
    7101 O           59.1010    41.7060     7.7430 O             1 RES     
    7102 OS          98.7460    16.5420    13.5350 OS            1 RES     
    7103 O           52.8580    31.2520    11.5010 O             1 RES     
    7104 O           78.9490    32.9340     4.0500 O             1 RES     
    7105 Si          96.1820    13.6870    12.6920 Si            1 RES     
    7106 O           72.4060    27.0210     4.5720 O             1 RES     
    7107 O           82.4200    22.4380     3.8130 O             1 RES     
    7108 Si          69.3320    37.9810     7.2560 Si            1 RES     
    7109 OS          63.0730    33.9140    13.3170 OS            1 RES     
    7110 OS          51.1850    49.5760    12.8470 OS            1 RES     
    7111 Si          73.2730    36.9670    11.8210 Si            1 RES     
    7112 O           75.0460    37.2640     7.3890 O             1 RES     
    7113 O           64.9480    19.2350     6.0250 O             1 RES     
    7114 Si          97.2880    48.5670     9.7450 Si            1 RES     
    7115 Si          89.1580     5.4970    12.3780 Si            1 RES     
    7116 O           56.1050    35.7080     4.4190 O             1 RES     
    7117 Si          65.4760    20.6070     6.7620 Si            1 RES     
    7118 O           64.5900    33.3570    11.3350 O             1 RES     
    7119 Si          67.0470     0.9500    12.4370 Si            1 RES     
    7120 O           52.3170     7.2640     8.3850 O             1 RES     
    7121 O           59.0200    36.3940     7.3610 O             1 RES     
    7122 OS          50.4130    36.1710    11.9020 OS            1 RES     
    7123 O           57.3160    17.2230    10.7510 O             1 RES     
    7124 O           98.3180    49.4250     8.8890 O             1 RES     
    7125 Si          96.3050     7.2390    11.5810 Si            1 RES     
    7126 Si          50.9870    22.4530    12.7220 Si            1 RES     
    7127 O           76.4740    16.1000     1.6920 O             1 RES     
    7128 OS          58.1300     3.5870    11.1090 OS            1 RES     
    7129 O           62.0960     9.1050     6.9030 O             1 RES     
    7130 Si          84.7290    19.2200    10.7460 Si            1 RES     
    7131 O           59.8690    36.6850     4.6570 O             1 RES     
    7132 O           56.2950    49.5440    10.8970 O             1 RES     
    7133 O           91.9290    17.3280     6.3350 O             1 RES     
    7134 O           59.4350    46.6280     4.5100 O             1 RES     
    7135 O           90.4240     8.4670     2.8820 O             1 RES     
    7136 Si          76.2590     7.5200    11.9100 Si            1 RES     
    7137 O           82.8230    46.4750     9.3520 O             1 RES     
    7138 Si          56.6160    22.6860     3.5980 Si            1 RES     
    7139 O           77.6590    26.8770     8.9330 O             1 RES     
    7140 Si          65.6720    43.1520     3.8470 Si            1 RES     
    7141 O           94.8030    25.8370     6.1180 O             1 RES     
    7142 O           62.3800     0.3960     4.1410 O             1 RES     
    7143 O           89.3280    74.2340     3.1580 O             1 RES     
    7144 O           58.4580    98.5390     6.1960 O             1 RES     
    7145 O           59.9370    84.3450     9.7080 O             1 RES     
    7146 O           77.9310    70.9500     2.9650 O             1 RES     
    7147 Si          84.0510    71.9090     6.4800 Si            1 RES     
    7148 O           81.4160    67.1410     7.9150 O             1 RES     
    7149 O           57.4230    75.4710     6.7820 O             1 RES     
    7150 O           97.1120    53.1090     5.5400 O             1 RES     
    7151 O           82.8980    57.8050     9.9470 O             1 RES     
    7152 Si          88.7810    61.9610     4.5220 Si            1 RES     
    7153 O           75.3700    51.5880    12.7280 O             1 RES     
    7154 O           78.2200    57.4620    11.4690 O             1 RES     
    7155 O           91.5420    72.2820     9.1930 O             1 RES     
    7156 Si          51.2140    76.3900     3.6200 Si            1 RES     
    7157 O           82.1660    92.1050     9.0280 O             1 RES     
    7158 O           76.2930    96.3710     7.6460 O             1 RES     
    7159 O           67.5360    75.3840     7.5700 O             1 RES     
    7160 OS          95.4190    83.1370    12.1080 OS            1 RES     
    7161 Si          87.4340    54.1390     8.1680 Si            1 RES     
    7162 O           85.4360    82.8570     8.7280 O             1 RES     
    7163 O           73.7070    74.5910     4.9950 O             1 RES     
    7164 O           59.6650    81.9680     5.7910 O             1 RES     
    7165 Si          95.4860    72.8860    10.2000 Si            1 RES     
    7166 Si          69.9930    68.2280    12.3350 Si            1 RES     
    7167 O           74.5250    80.7410     7.9630 O             1 RES     
    7168 O           82.6640    91.9310    11.4990 O             1 RES     
    7169 O           56.5590    77.3500     5.0100 O             1 RES     
    7170 Si          58.9520    83.0600     4.9870 Si            1 RES     
    7171 O           90.1130    75.9410     9.7650 O             1 RES     
    7172 O           70.6210    87.5380     6.4480 O             1 RES     
    7173 Si          74.6920    79.4830     6.9840 Si            1 RES     
    7174 Si          69.3940    65.7420     5.6330 Si            1 RES     
    7175 O           79.8760    61.7970     6.2890 O             1 RES     
    7176 O           87.9360    80.6050     3.1040 O             1 RES     
    7177 O           99.3000    93.1650     4.7740 O             1 RES     
    7178 O           99.2410    65.4300     8.7790 O             1 RES     
    7179 Si          66.0040    75.6960     7.5250 Si            1 RES     
    7180 O           60.2360    53.4110     9.6970 O             1 RES     
    7181 O           93.4210    78.2730     6.3950 O             1 RES     
    7182 O           50.1870    90.6520     3.9740 O             1 RES     
    7183 O           61.9330    86.8760     3.0060 O             1 RES     
    7184 Si          93.8870    50.3740     7.3530 Si            1 RES     
    7185 O           73.3580    62.3080    11.7210 O             1 RES     
    7186 Si          75.3870    91.5760    12.4880 Si            1 RES     
    7187 O           96.0860    71.2950     7.0170 O             1 RES     
    7188 O           71.7340    56.6160     4.3500 O             1 RES     
    7189 O           73.6280    88.4180    11.4120 O             1 RES     
    7190 O           98.4240    80.3200     6.4430 O             1 RES     
    7191 O           64.8410    73.7240    11.1040 O             1 RES     
    7192 O           63.8720    57.7270     8.0010 O             1 RES     
    7193 O           92.9320    85.6550     5.0210 O             1 RES     
    7194 Si          64.9580    72.2990    11.7660 Si            1 RES     
    7195 Si          51.3660    73.9370     5.4410 Si            1 RES     
    7196 O           67.8410    87.7820    13.0870 O             1 RES     
    7197 O           52.1070    95.4170     9.4240 O             1 RES     
    7198 Si          73.7100    78.9220    12.3920 Si            1 RES     
    7199 O           88.9530    85.4330    11.0830 O             1 RES     
    7200 O           68.9750    87.1960     8.6150 O             1 RES     
    7201 O           70.4090    99.8920     4.6600 O             1 RES     
    7202 OS          95.0010    86.9310    13.7540 OS            1 RES     
    7203 O           96.3590    88.6730     9.4100 O             1 RES     
    7204 Si          80.3630    92.9570     3.6210 Si            1 RES     
    7205 O           72.5390    50.6400     1.6870 O             1 RES     
    7206 Si          97.8950    93.8810     5.0840 Si            1 RES     
    7207 O           71.7380    95.4450     8.6830 O             1 RES     
    7208 O           79.7260    84.7920    11.3840 O             1 RES     
    7209 O           78.0750    55.0820    10.5820 O             1 RES     
    7210 Si          74.9300    97.1050     7.6980 Si            1 RES     
    7211 O           99.2420    97.3080     4.1190 O             1 RES     
    7212 O           80.4550    57.1310    10.0400 O             1 RES     
    7213 Si          73.1700    57.2460     4.4180 Si            1 RES     
    7214 O           72.6910    90.0080     9.8390 O             1 RES     
    7215 O           59.2430    84.4260     5.6130 O             1 RES     
    7216 Si          85.9510    95.0840     7.4200 Si            1 RES     
    7217 O           63.0020    64.6690    10.0680 O             1 RES     
    7218 Si          72.3030    68.2180     3.4300 Si            1 RES     
    7219 O           88.6920    94.6600     9.9650 O             1 RES     
    7220 Si          55.3750    86.6310     5.4460 Si            1 RES     
    7221 O           81.6610    56.9240     7.6810 O             1 RES     
    7222 OS          52.1040    94.4950    11.9170 OS            1 RES     
    7223 O           83.2710    87.6820     4.3090 O             1 RES     
    7224 O           84.7990    91.8550    10.2240 O             1 RES     
    7225 Si          70.4020    95.1770     4.5950 Si            1 RES     
    7226 Si          80.0820    67.9670     7.9450 Si            1 RES     
    7227 O           80.5780    93.3520     7.2540 O             1 RES     
    7228 O           69.3900    82.4830    10.8440 O             1 RES     
    7229 O           88.7970    97.0110    10.9690 O             1 RES     
    7230 Si          89.4990    69.3740     8.7080 Si            1 RES     
    7231 O           92.9490    88.5760     2.4350 O             1 RES     
    7232 Si          53.8240    79.5800     7.9930 Si            1 RES     
    7233 O           87.3440    58.4030     7.9400 O             1 RES     
    7234 O           65.1020    87.0500     8.0510 O             1 RES     
    7235 O           59.6790    53.5510     2.8980 O             1 RES     
    7236 O           81.5790    93.9430     3.5960 O             1 RES     
    7237 Si          85.8900    62.3490     5.6510 Si            1 RES     
    7238 O           54.2640    59.0260     4.7800 O             1 RES     
    7239 O           94.0270    65.3980     4.9560 O             1 RES     
    7240 OS          88.3090    83.0360    11.9640 OS            1 RES     
    7241 Si          82.8510    79.5180    12.2650 Si            1 RES     
    7242 O           72.9350    91.4540     7.9210 O             1 RES     
    7243 O           80.0370    99.7050     3.3810 O             1 RES     
    7244 Si          53.5000    88.7530     4.4320 Si            1 RES     
    7245 O           88.2010    60.6540     7.5920 O             1 RES     
    7246 O           59.7210    94.1600     8.4230 O             1 RES     
    7247 O           88.4650    75.9060     8.1340 O             1 RES     
    7248 O           56.0940    66.2190     8.6880 O             1 RES     
    7249 Si          65.1630    85.7140     7.3010 Si            1 RES     
    7250 OS          57.6490    66.0520    13.1470 OS            1 RES     
    7251 O           81.1850    57.8320     5.0870 O             1 RES     
    7252 O           74.1550    96.1000     8.5750 O             1 RES     
    7253 O           58.2810    56.0230    12.1260 O             1 RES     
    7254 O           95.3310    74.4320     9.8760 O             1 RES     
    7255 Si          75.6960    87.4590     8.8510 Si            1 RES     
    7256 O           99.6470    65.8970     1.3740 O             1 RES     
    7257 Si          65.9380    82.7240     8.1010 Si            1 RES     
    7258 Si          57.5200    94.1720    12.3700 Si            1 RES     
    7259 O           80.4440    73.0700     5.2210 O             1 RES     
    7260 O           96.7050    97.7370     5.0130 O             1 RES     
    7261 O           61.4490    57.4630     8.7760 O             1 RES     
    7262 Si          73.7950    51.6760     6.8390 Si            1 RES     
    7263 O           52.8600    80.0720     9.2260 O             1 RES     
    7264 Si          71.9800    80.9280     3.3940 Si            1 RES     
    7265 O           74.3500    68.9630     7.6670 O             1 RES     
    7266 Si          72.5320    75.0840     4.1390 Si            1 RES     
    7267 O           53.2820    59.1310    10.0050 O             1 RES     
    7268 Si          68.5560    83.6670    11.4620 Si            1 RES     
    7269 O           89.1110    71.6780     2.3750 O             1 RES     
    7270 O           67.6690    79.6720     7.1160 O             1 RES     
    7271 Si          70.2150    56.4960     4.7090 Si            1 RES     
    7272 Si          76.0590    90.8180     5.8490 Si            1 RES     
    7273 O           78.9650    88.7850    10.2090 O             1 RES     
    7274 O           90.1500    66.6990     2.3940 O             1 RES     
    7275 Si          99.4280    50.5340     8.6050 Si            1 RES     
    7276 O           54.7720    71.7590     6.4550 O             1 RES     
    7277 O           74.2530    83.2980     7.8670 O             1 RES     
    7278 Si          60.7020    80.7490     6.1000 Si            1 RES     
    7279 O           92.6700    55.6730     5.2900 O             1 RES     
    7280 Si          64.2700    99.9640    11.6860 Si            1 RES     
    7281 O           56.6100    71.1300    10.0300 O             1 RES     
    7282 O           99.4510    61.8250    10.8060 O             1 RES     
    7283 O           91.1260    63.8420     9.8870 O             1 RES     
    7284 O           95.6810    65.0260     7.0230 O             1 RES     
    7285 O           96.7460    76.3010     8.8480 O             1 RES     
    7286 O           77.8520    80.1570     5.1630 O             1 RES     
    7287 O           64.0080    66.7380     5.3380 O             1 RES     
    7288 O           77.0560    91.8310     1.9940 O             1 RES     
    7289 Si          63.3490    74.6240     3.2190 Si            1 RES     
    7290 O           75.9020    84.8710     4.4290 O             1 RES     
    7291 O           70.1230    54.8830     4.5910 O             1 RES     
    7292 O           84.1470    65.1210    11.3000 O             1 RES     
    7293 Si          51.3730    72.1510     2.9220 Si            1 RES     
    7294 O           99.7900    75.9860     3.1710 O             1 RES     
    7295 O           82.2150    77.3290     8.7490 O             1 RES     
    7296 O           92.4190    63.5680     5.7240 O             1 RES     
    7297 O           87.2140    55.2770     9.2580 O             1 RES     
    7298 O           90.9980    73.4960     1.5910 O             1 RES     
    7299 OS          50.6460    77.9250    13.3760 OS            1 RES     
    7300 Si          50.8110    69.1590     9.6580 Si            1 RES     
    7301 O           80.5330    68.1760     4.0030 O             1 RES     
    7302 O           91.9850    83.4010     8.8860 O             1 RES     
    7303 OS          56.9590    88.8170    12.1150 OS            1 RES     
    7304 O           73.5630    78.8290     6.0310 O             1 RES     
    7305 Si          86.8960    56.1620    10.4730 Si            1 RES     
    7306 OS          80.9060    92.8970    12.8760 OS            1 RES     
    7307 O           72.3450    83.7720    10.4280 O             1 RES     
    7308 Si          88.7720    99.4470     3.8340 Si            1 RES     
    7309 Si          70.6320    78.6790    11.6590 Si            1 RES     
    7310 O           79.1060    59.9070     8.0490 O             1 RES     
    7311 O           54.3300    66.1090     6.8260 O             1 RES     
    7312 Si          96.1970    58.4660     8.6420 Si            1 RES     
    7313 O           81.4770    70.9200    10.3250 O             1 RES     
    7314 O           73.6740    63.7090     7.1970 O             1 RES     
    7315 O           75.7850    66.0530    11.2930 O             1 RES     
    7316 Si          75.0720    52.0650    11.2810 Si            1 RES     
    7317 O           56.5130    62.3630    10.0980 O             1 RES     
    7318 O           81.2430    76.1310     6.4910 O             1 RES     
    7319 O           79.5560    93.4330     4.9100 O             1 RES     
    7320 O           55.5290    79.6980     4.5780 O             1 RES     
    7321 Si          62.1290    79.9390     9.9840 Si            1 RES     
    7322 Si          92.9810    92.5610    10.5600 Si            1 RES     
    7323 O           50.0220    64.5270     4.1100 O             1 RES     
    7324 O           77.5270    56.1070     3.8020 O             1 RES     
    7325 OS          62.7250    53.7090    12.4850 OS            1 RES     
    7326 Si          59.4180    52.8310    10.8570 Si            1 RES     
    7327 O           81.6600    86.1520    10.5500 O             1 RES     
    7328 Si          68.5290    81.0570     7.4200 Si            1 RES     
    7329 OS          72.9530    95.1110    10.9490 OS            1 RES     
    7330 O           97.5310    78.1790     7.5710 O             1 RES     
    7331 O           72.0970    52.9560     3.5790 O             1 RES     
    7332 O           73.9750    97.1680     6.4300 O             1 RES     
    7333 Si          85.6350    57.7970     5.0950 Si            1 RES     
    7334 Si          65.2560    75.1420    10.4270 Si            1 RES     
    7335 O           68.6580    85.0890    10.6360 O             1 RES     
    7336 OS          70.2660    87.5690    13.8000 OS            1 RES     
    7337 O           79.7200    68.0810    12.3670 O             1 RES     
    7338 O           76.0000    69.8770     4.2940 O             1 RES     
    7339 O           91.0400    52.2550     8.1180 O             1 RES     
    7340 Si          76.5050    59.2230     5.5330 Si            1 RES     
    7341 O           86.9120    90.4130    10.7990 O             1 RES     
    7342 O           70.7340    65.2520     4.9050 O             1 RES     
    7343 O           69.4960    68.3400    10.8120 O             1 RES     
    7344 O           72.9330    52.9620     7.0930 O             1 RES     
    7345 OS          96.3160    98.9330    13.3120 OS            1 RES     
    7346 O           75.5590    73.5770     6.4960 O             1 RES     
    7347 O           84.9440    98.6380    11.0810 O             1 RES     
    7348 Si          75.5740    69.7440    11.9030 Si            1 RES     
    7349 O           50.6750    80.5180    10.5840 O             1 RES     
    7350 Si          69.9420    56.1710     7.7720 Si            1 RES     
    7351 Si          73.1990    62.0790     3.8050 Si            1 RES     
    7352 O           80.8380    55.4450     5.9680 O             1 RES     
    7353 O           95.9100    57.5290     7.3860 O             1 RES     
    7354 Si          53.6840    62.8230    12.3480 Si            1 RES     
    7355 OS          68.8100    94.6700    12.2700 OS            1 RES     
    7356 Si          88.0060    61.3040     9.0220 Si            1 RES     
    7357 O           70.9740    86.1480     4.3800 O             1 RES     
    7358 O           83.5230    95.4890     2.9160 O             1 RES     
    7359 Si          59.2410    95.5480     3.3790 Si            1 RES     
    7360 Si          84.3650    55.5360    12.3320 Si            1 RES     
    7361 Si          89.6160    75.8090     3.1450 Si            1 RES     
    7362 O           78.8550    66.9830     8.2740 O             1 RES     
    7363 Si          60.8730    75.4460     9.4090 Si            1 RES     
    7364 OS          52.9380    77.3670    13.5110 OS            1 RES     
    7365 OS          83.3940    95.2420    13.7960 OS            1 RES     
    7366 Si          95.8650    81.8970     2.7980 Si            1 RES     
    7367 O           93.3990    55.4610    10.9030 O             1 RES     
    7368 O           95.3100    82.5620     6.9560 O             1 RES     
    7369 O           71.8170    95.9040     5.1190 O             1 RES     
    7370 O           92.0710    97.7170     9.4400 O             1 RES     
    7371 Si          85.4420    82.0520     7.3890 Si            1 RES     
    7372 O           95.1310    64.1860     9.3770 O             1 RES     
    7373 O           63.7230    51.3210    12.2550 O             1 RES     
    7374 O           78.4180    62.2310     8.3410 O             1 RES     
    7375 O           98.1150    53.6560     3.2300 O             1 RES     
    7376 O           74.3630    71.2010     2.9820 O             1 RES     
    7377 Si          50.4750    89.2730     4.6870 Si            1 RES     
    7378 Si          99.8290    67.2240    12.6160 Si            1 RES     
    7379 O           61.8830    92.9360     5.5030 O             1 RES     
    7380 O           98.1000    68.5900     5.2710 O             1 RES     
    7381 Si          63.5760    95.1310     8.3190 Si            1 RES     
    7382 O           57.9420    79.6150     8.5510 O             1 RES     
    7383 O           69.4490    66.2870     9.2650 O             1 RES     
    7384 O           71.8720    83.0660     6.7000 O             1 RES     
    7385 Si          78.1680    82.5160     7.8900 Si            1 RES     
    7386 O           59.3260    64.7530     6.8240 O             1 RES     
    7387 Si          83.4080    73.7200     8.8770 Si            1 RES     
    7388 O           72.0920    70.6210     7.5910 O             1 RES     
    7389 O           53.4620    56.4040    10.5250 O             1 RES     
    7390 Si          87.3120    74.5400    11.4470 Si            1 RES     
    7391 O           76.2140    75.8960    11.8030 O             1 RES     
    7392 Si          89.0690    67.2800     3.3630 Si            1 RES     
    7393 O           88.6180    84.2620     4.5350 O             1 RES     
    7394 Si          87.6040    84.2130     3.3530 Si            1 RES     
    7395 O           50.7970    92.5890     7.7990 O             1 RES     
    7396 O           72.2110    63.2820     3.8790 O             1 RES     
    7397 O           53.3010    92.0190     7.2270 O             1 RES     
    7398 O           92.6960    90.5310     3.8590 O             1 RES     
    7399 Si          67.0000    55.1450     8.0970 Si            1 RES     
    7400 O           97.1890    75.8760     6.4000 O             1 RES     
    7401 O           92.6210    68.3830    10.7470 O             1 RES     
    7402 O           58.0760    65.1190     4.6190 O             1 RES     
    7403 Si          95.0950    88.4250    10.3500 Si            1 RES     
    7404 O           95.8150    50.0320     1.4580 O             1 RES     
    7405 Si          62.9980    81.8610     7.7030 Si            1 RES     
    7406 O           68.4430    68.7220     8.4660 O             1 RES     
    7407 O           74.4370    66.7460     6.5860 O             1 RES     
    7408 Si          64.9540    62.9100     6.0530 Si            1 RES     
    7409 O           64.9650    68.7910     9.9840 O             1 RES     
    7410 Si          74.7280    76.1950    11.4530 Si            1 RES     
    7411 O           97.3630    82.9210     8.3330 O             1 RES     
    7412 O           82.0960    66.7640    11.4900 O             1 RES     
    7413 O           84.8860    97.1780    12.9650 O             1 RES     
    7414 O           62.7500    65.3170     3.5650 O             1 RES     
    7415 O           85.1600    91.7720     5.1760 O             1 RES     
    7416 O           96.3020    93.3040     9.1230 O             1 RES     
    7417 O           71.4630    64.5980     8.6160 O             1 RES     
    7418 O           88.8250    97.9060     3.5560 O             1 RES     
    7419 O           83.4650    51.9990     3.7860 O             1 RES     
    7420 O           77.3030    64.6550     8.4230 O             1 RES     
    7421 O           74.3010    77.5890    11.8080 O             1 RES     
    7422 O           68.4060    97.3430    11.6440 O             1 RES     
    7423 O           56.4100    69.6400     5.3440 O             1 RES     
    7424 OS          59.7490    97.1610    13.2240 OS            1 RES     
    7425 Si          98.5780    69.7920     6.0330 Si            1 RES     
    7426 Si          63.2120    56.2720     4.4060 Si            1 RES     
    7427 Si          88.8670    93.7710     3.9090 Si            1 RES     
    7428 O           66.1730    85.9180     6.1790 O             1 RES     
    7429 Si          96.9800    52.9410     3.9820 Si            1 RES     
    7430 O           66.4210    98.9450     5.2640 O             1 RES     
    7431 OS          99.7980    88.4060    12.4830 OS            1 RES     
    7432 Si          78.4320    50.9860     9.0180 Si            1 RES     
    7433 O           53.7910    69.2340    12.2220 O             1 RES     
    7434 Si          87.3810    64.3720     9.2660 Si            1 RES     
    7435 O           89.6090    67.1140     4.7570 O             1 RES     
    7436 O           68.9850    73.2030     4.9360 O             1 RES     
    7437 O           83.3830    79.5890     8.6530 O             1 RES     
    7438 Si          56.5040    84.3540     3.6440 Si            1 RES     
    7439 Si          71.8010    73.4750    10.1490 Si            1 RES     
    7440 O           82.1880    52.9370    11.0530 O             1 RES     
    7441 O           98.2850    87.1040     8.2830 O             1 RES     
    7442 O           71.6560    65.2860     2.4880 O             1 RES     
    7443 Si          73.6110    92.4730     6.8000 Si            1 RES     
    7444 Si          89.1900    74.7630     8.9630 Si            1 RES     
    7445 OS          73.5860    97.4960    12.0860 OS            1 RES     
    7446 OS          85.6550    94.6830    12.9390 OS            1 RES     
    7447 O           88.8090    60.5150     5.0240 O             1 RES     
    7448 Si          57.5450    67.4300    12.2700 Si            1 RES     
    7449 O           61.9280    60.0130     4.3980 O             1 RES     
    7450 O           97.4460    62.9720    12.0550 O             1 RES     
    7451 O           66.4350    51.3450     6.4240 O             1 RES     
    7452 Si          60.3130    61.8920    10.4020 Si            1 RES     
    7453 O           61.2070    82.3640    13.4470 O             1 RES     
    7454 O           73.7810    96.8420     3.9060 O             1 RES     
    7455 OS          82.3080    90.5490    13.5250 OS            1 RES     
    7456 Si          64.6130    89.8490    10.8620 Si            1 RES     
    7457 Si          59.0190    54.2510     4.0900 Si            1 RES     
    7458 O           75.1120    64.6520     5.4390 O             1 RES     
    7459 Si          94.0140    86.7140     7.7550 Si            1 RES     
    7460 OS          98.1550    60.7840    12.7930 OS            1 RES     
    7461 OS          64.5800    60.1050    13.9600 OS            1 RES     
    7462 OS          80.2540    65.4520    12.2440 OS            1 RES     
    7463 O           65.1430    89.4530     9.4470 O             1 RES     
    7464 Si          76.1430    53.1790     5.5820 Si            1 RES     
    7465 O           50.4530    53.1480     6.2690 O             1 RES     
    7466 O           96.8350    99.3910    10.9860 O             1 RES     
    7467 O           54.0590    86.5990     8.4880 O             1 RES     
    7468 Si          71.9700    64.8470     4.0010 Si            1 RES     
    7469 Si          55.4830    71.8870    10.9520 Si            1 RES     
    7470 O           62.9610    66.0130    12.0790 O             1 RES     
    7471 Si          68.5110    95.7810    11.1700 Si            1 RES     
    7472 OS          76.1120    56.5300    13.1560 OS            1 RES     
    7473 O           78.9550    61.6580     3.8450 O             1 RES     
    7474 O           66.8570    54.4800     9.5660 O             1 RES     
    7475 O           62.2070    81.3180     6.4880 O             1 RES     
    7476 Si          53.6610    97.9890     3.2660 Si            1 RES     
    7477 O           52.3810    88.3960     9.2630 O             1 RES     
    7478 O           66.4770    93.0330     5.4360 O             1 RES     
    7479 O           58.4010    87.8400     9.9930 O             1 RES     
    7480 Si          85.2360    76.0960     9.8200 Si            1 RES     
    7481 OS          91.6370    98.2940    12.0470 OS            1 RES     
    7482 O           78.3920    95.5220     9.3080 O             1 RES     
    7483 Si          58.7650    59.9060     8.6400 Si            1 RES     
    7484 Si          81.1860    90.2060     4.6190 Si            1 RES     
    7485 O           83.9620    59.7730    11.3540 O             1 RES     
    7486 Si          79.9290    88.9810    11.4220 Si            1 RES     
    7487 O           96.4470    95.4640     8.5700 O             1 RES     
    7488 O           53.8460    99.6770    12.4230 O             1 RES     
    7489 O           61.9350    76.3070    10.1220 O             1 RES     
    7490 O           84.7310    87.0780     7.2970 O             1 RES     
    7491 O           59.9940    82.7270     3.7510 O             1 RES     
    7492 OS          95.7050    62.9940    13.9360 OS            1 RES     
    7493 Si          68.4620    69.7870     7.3990 Si            1 RES     
    7494 O           61.2240    85.5340     6.4810 O             1 RES     
    7495 O           93.9110    60.6470     6.2750 O             1 RES     
    7496 O           95.5200    86.9650     7.4450 O             1 RES     
    7497 O           92.3600    97.1630     6.9220 O             1 RES     
    7498 OS          71.7830    63.9840    12.3470 OS            1 RES     
    7499 Si          88.2540    93.6100     8.9210 Si            1 RES     
    7500 O           67.5590    77.3140    12.9220 O             1 RES     
    7501 O           53.3950    61.3600    11.7150 O             1 RES     
    7502 Si          56.1610    54.5190     2.9570 Si            1 RES     
    7503 Si          85.9990    54.7990     5.4630 Si            1 RES     
    7504 O           90.4460    58.8940    11.2490 O             1 RES     
    7505 Si          86.3780    58.7640     9.1110 Si            1 RES     
    7506 Si          51.8180    77.6390    12.3530 Si            1 RES     
    7507 OS          97.8010    87.1470    12.8070 OS            1 RES     
    7508 O           61.1920    95.1340    13.1630 O             1 RES     
    7509 O           98.1120    97.4380    10.4120 O             1 RES     
    7510 O           89.5130    70.8610     8.2070 O             1 RES     
    7511 O           57.0610    53.7190    13.2660 O             1 RES     
    7512 O           76.4280    84.1630    11.4740 O             1 RES     
    7513 Si          83.3770    53.5300     3.4640 Si            1 RES     
    7514 O           66.2090    78.5900     2.5190 O             1 RES     
    7515 O           86.1180    98.2970     8.6890 O             1 RES     
    7516 O           96.7490    67.9500     3.0500 O             1 RES     
    7517 O           91.6860    92.9810     6.6740 O             1 RES     
    7518 O           87.4760    62.5040     5.3120 O             1 RES     
    7519 Si          74.7900    63.2300     6.2040 Si            1 RES     
    7520 OS          88.1530    54.6200    13.3710 OS            1 RES     
    7521 O           59.6770    82.6350    11.3050 O             1 RES     
    7522 Si          83.9690    72.8690     3.4780 Si            1 RES     
    7523 O           93.9820    87.9620     9.3120 O             1 RES     
    7524 Si          62.2740    84.9140     7.4100 Si            1 RES     
    7525 O           75.0010    68.4920    11.1670 O             1 RES     
    7526 O           52.7600    74.2130    10.4020 O             1 RES     
    7527 O           92.9580    76.1660    11.8200 O             1 RES     
    7528 O           95.1440    64.4450    11.7480 O             1 RES     
    7529 Si          90.0110    89.8830     8.6920 Si            1 RES     
    7530 OS          54.8870    80.6080    12.7110 OS            1 RES     
    7531 O           86.7400    79.8300     5.2550 O             1 RES     
    7532 Si          66.6150    94.7830     8.8650 Si            1 RES     
    7533 O           64.1100    61.8590     9.6930 O             1 RES     
    7534 O           52.0850    94.1560     6.4310 O             1 RES     
    7535 OS          89.2760    99.2800    12.1610 OS            1 RES     
    7536 Si          89.0470    95.4520    11.2560 Si            1 RES     
    7537 Si          96.1120    92.6170    10.5030 Si            1 RES     
    7538 Si          65.9470    52.3680     7.5480 Si            1 RES     
    7539 O           59.2800    73.5000     7.5290 O             1 RES     
    7540 OS          90.7000    84.4120    12.2590 OS            1 RES     
    7541 OS          87.3970    99.2820    10.3440 OS            1 RES     
    7542 O           77.2990    59.9210     4.3170 O             1 RES     
    7543 O           97.5000    67.2100     9.6140 O             1 RES     
    7544 O           60.7770    90.0520     8.7900 O             1 RES     
    7545 Si          74.9320    74.8970     5.9010 Si            1 RES     
    7546 Si          96.2280    86.8130    12.7060 Si            1 RES     
    7547 OS          67.5710    57.1020    13.6460 OS            1 RES     
    7548 O           53.9580    81.7320     3.9260 O             1 RES     
    7549 O           80.0340    98.1820     5.4990 O             1 RES     
    7550 Si          52.3960    50.3410    12.1610 Si            1 RES     
    7551 Si          51.3740    74.8670    10.7920 Si            1 RES     
    7552 O           82.8560    64.0160     5.4360 O             1 RES     
    7553 O           55.0360    82.8140    11.2680 O             1 RES     
    7554 O           54.3950    51.0660     5.6080 O             1 RES     
    7555 Si          61.4700    64.6680     9.6650 Si            1 RES     
    7556 O           95.4260    62.4360     7.7160 O             1 RES     
    7557 Si          89.5160    83.9090    11.3150 Si            1 RES     
    7558 O           92.7260    95.9040    11.9400 O             1 RES     
    7559 OS          71.7830    55.7500    13.3060 OS            1 RES     
    7560 O           53.4140    90.7410     9.3500 O             1 RES     
    7561 O           84.3490    82.3610     3.7950 O             1 RES     
    7562 O           54.0670    95.7170    13.0380 O             1 RES     
    7563 O           66.5320    75.6030    11.2150 O             1 RES     
    7564 O           58.3430    90.2150     9.8420 O             1 RES     
    7565 O           54.0360    75.3720     8.7120 O             1 RES     
    7566 O           80.6800    95.8030     9.3590 O             1 RES     
    7567 O           60.0900    60.7120     6.1550 O             1 RES     
    7568 O           69.1940    67.1920     5.2050 O             1 RES     
    7569 O           87.1160    98.2080    12.3700 O             1 RES     
    7570 Si          61.3670    66.3290    12.1810 Si            1 RES     
    7571 O           85.5170    99.9290     1.5800 O             1 RES     
    7572 O           53.1960    63.4610     3.7560 O             1 RES     
    7573 O           54.0060    80.3250     6.5690 O             1 RES     
    7574 Si          89.5480    84.3190     5.9030 Si            1 RES     
    7575 Si          69.5940    68.6870     4.7920 Si            1 RES     
    7576 OS          65.5400    61.8900    12.5810 OS            1 RES     
    7577 Si          53.2760    72.0430     6.8940 Si            1 RES     
    7578 O           54.7160    94.8320     2.2930 O             1 RES     
    7579 Si          66.4430    53.1290    10.4140 Si            1 RES     
    7580 O           84.7450    70.4650     6.8190 O             1 RES     
    7581 O           92.7410    99.4860     7.9210 O             1 RES     
    7582 O           59.6600    75.8890     8.2980 O             1 RES     
    7583 Si          64.1900    90.4600     5.9330 Si            1 RES     
    7584 O           52.1890    57.9920     5.7940 O             1 RES     
    7585 OS          66.4940    71.9160    12.0070 OS            1 RES     
    7586 O           59.6740    53.0890     7.3500 O             1 RES     
    7587 Si          95.4850    52.3080     9.1260 Si            1 RES     
    7588 O           84.5530    51.7420     7.1130 O             1 RES     
    7589 Si          97.6950    96.8240     4.1620 Si            1 RES     
    7590 O           59.0940    81.8780     9.0570 O             1 RES     
    7591 O           82.8540    61.6640    10.2560 O             1 RES     
    7592 O           89.9370    62.6720     5.1830 O             1 RES     
    7593 O           92.7870    57.5880     3.9020 O             1 RES     
    7594 OS          91.5110    94.6970    13.8950 OS            1 RES     
    7595 Si          53.5110    76.4870     7.6910 Si            1 RES     
    7596 O           74.8100    90.6180     2.1530 O             1 RES     
    7597 Si          95.3360    98.4560     5.2530 Si            1 RES     
    7598 O           65.0890    66.2570    10.7830 O             1 RES     
    7599 O           51.7470    75.2300     4.6450 O             1 RES     
    7600 O           70.2430    99.6870    11.9420 O             1 RES     
    7601 Si          51.9550    92.6290     6.7790 Si            1 RES     
    7602 Si          71.5380    53.5220     7.4470 Si            1 RES     
    7603 O           67.2980    95.0130    10.2930 O             1 RES     
    7604 O           64.1450    89.2150     6.8920 O             1 RES     
    7605 O           60.4990    69.3050     7.6740 O             1 RES     
    7606 Si          64.9070    57.2060     6.9330 Si            1 RES     
    7607 Si          78.6810    75.7310     9.3460 Si            1 RES     
    7608 O           85.3300    80.3750     2.9760 O             1 RES     
    7609 Si          58.6830    93.2050     7.6990 Si            1 RES     
    7610 O           64.0870    79.7210     3.3030 O             1 RES     
    7611 O           83.0820    72.8120    10.2330 O             1 RES     
    7612 O           97.5190    86.2220     3.8790 O             1 RES     
    7613 Si          78.5250    56.5820    10.1990 Si            1 RES     
    7614 Si          97.4500    67.4220     4.3660 Si            1 RES     
    7615 O           78.1610    65.8470     6.3670 O             1 RES     
    7616 OS          51.1650    72.8170    14.2730 OS            1 RES     
    7617 O           94.8110    50.9100     8.5730 O             1 RES     
    7618 O           68.5750    77.3960     6.6910 O             1 RES     
    7619 O           76.1090    53.3020     3.9990 O             1 RES     
    7620 Si          92.6060    84.7230     9.4340 Si            1 RES     
    7621 Si          95.3720    60.9610     7.0310 Si            1 RES     
    7622 O           72.5860    79.5690     3.9380 O             1 RES     
    7623 Si          90.2970    81.3540     6.4800 Si            1 RES     
    7624 Si          56.0960    83.9830    10.8440 Si            1 RES     
    7625 O           62.7440    80.9830     8.8940 O             1 RES     
    7626 O           96.1210    51.2430    12.8700 O             1 RES     
    7627 O           76.2930    80.5420     3.2220 O             1 RES     
    7628 O           57.8820    74.5560     9.3200 O             1 RES     
    7629 O           77.0360    72.2950     8.3600 O             1 RES     
    7630 O           75.2950    50.7040    10.3780 O             1 RES     
    7631 Si          74.9280    67.5040     7.8380 Si            1 RES     
    7632 O           98.6180    54.1440    10.7340 O             1 RES     
    7633 O           75.6520    78.5460     7.8160 O             1 RES     
    7634 O           69.8470    74.9840     6.4890 O             1 RES     
    7635 Si          91.6370    62.8030    10.9200 Si            1 RES     
    7636 Si          85.3520    51.3890    12.1150 Si            1 RES     
    7637 Si          96.8970    87.7350     7.7620 Si            1 RES     
    7638 O           76.2440    57.4510     2.2640 O             1 RES     
    7639 O           55.3780    85.8640     6.8210 O             1 RES     
    7640 O           95.1740    77.8150     2.8680 O             1 RES     
    7641 Si          93.8770    77.3760    11.5510 Si            1 RES     
    7642 Si          62.5270    58.5340     8.2720 Si            1 RES     
    7643 O           53.5620    78.0480     7.7900 O             1 RES     
    7644 O           55.2150    72.8920     2.7460 O             1 RES     
    7645 O           96.5290    72.0670     9.2400 O             1 RES     
    7646 Si          63.1480    65.3560     5.0550 Si            1 RES     
    7647 O           74.9450    79.7810    11.9010 O             1 RES     
    7648 O           50.0590    67.7840     9.3110 O             1 RES     
    7649 O           69.1170    63.8090     9.2550 O             1 RES     
    7650 O           54.0670    87.3420     4.9070 O             1 RES     
    7651 O           86.9140    60.2500     9.4460 O             1 RES     
    7652 O           85.5640    56.3480     5.5660 O             1 RES     
    7653 OS          79.1860    88.1350    12.6570 OS            1 RES     
    7654 Si          81.8730    87.3300     3.6020 Si            1 RES     
    7655 O           92.7740    53.8650     8.6890 O             1 RES     
    7656 O           86.2550    76.7060     8.7730 O             1 RES     
    7657 Si          64.0130    65.1700    11.1740 Si            1 RES     
    7658 OS          53.7870    66.7630    12.8830 OS            1 RES     
    7659 Si          98.5450    55.0490    12.0960 Si            1 RES     
    7660 O           90.6880    72.2130     4.0540 O             1 RES     
    7661 O           64.5790    82.1970     7.4600 O             1 RES     
    7662 O           90.8770    88.5600     8.8240 O             1 RES     
    7663 O           74.8340    93.0310     2.6420 O             1 RES     
    7664 Si          80.0510    69.2360     5.0320 Si            1 RES     
    7665 O           82.2550    58.4950     2.8570 O             1 RES     
    7666 O           95.1300    82.9420     1.8010 O             1 RES     
    7667 Si          56.2410    93.4290     9.5200 Si            1 RES     
    7668 Si          76.1320    77.2990     4.2450 Si            1 RES     
    7669 O           89.7030    93.2250     8.3650 O             1 RES     
    7670 Si          84.6490    53.1510     7.7220 Si            1 RES     
    7671 O           65.1550    61.3100     5.9300 O             1 RES     
    7672 Si          55.3720    60.0700     4.4590 Si            1 RES     
    7673 O           92.3490    57.4910    12.1660 O             1 RES     
    7674 O           65.4210    90.4660    12.0290 O             1 RES     
    7675 O           55.0060    54.4480     4.0530 O             1 RES     
    7676 O           69.4280    95.2850     5.8050 O             1 RES     
    7677 O           94.4440    96.5930    10.0370 O             1 RES     
    7678 O           99.3310    82.3570     9.5320 O             1 RES     
    7679 O           80.1120    76.0840     8.9200 O             1 RES     
    7680 O           60.4160    51.0990     2.8170 O             1 RES     
    7681 O           55.6430    84.8800     9.6260 O             1 RES     
    7682 O           60.6130    79.6900     9.5080 O             1 RES     
    7683 O           88.9430    80.5190     6.3560 O             1 RES     
    7684 O           60.5100    58.1880     5.4640 O             1 RES     
    7685 O           68.0080    99.7870    12.4920 O             1 RES     
    7686 O           79.9750    68.5390     6.4630 O             1 RES     
    7687 Si          93.5010    56.3350    12.2980 Si            1 RES     
    7688 O           81.0460    83.8030     5.5130 O             1 RES     
    7689 O           58.9270    61.8520    11.1040 O             1 RES     
    7690 O           72.6540    50.6510     6.3860 O             1 RES     
    7691 O           95.1230    82.2190     9.7350 O             1 RES     
    7692 O           65.4250    58.6330     6.4840 O             1 RES     
    7693 O           74.3040    83.2740     3.2250 O             1 RES     
    7694 O           99.8890    63.0660     8.7600 O             1 RES     
    7695 Si          58.1590    61.0630     5.8820 Si            1 RES     
    7696 Si          59.7230    56.6800    12.0750 Si            1 RES     
    7697 Si          78.4790    58.4120     7.7260 Si            1 RES     
    7698 Si          50.5120    57.5370    12.0020 Si            1 RES     
    7699 O           59.6710    55.6550     4.5980 O             1 RES     
    7700 O           50.6430    96.6160     2.2410 O             1 RES     
    7701 O           97.4550    63.8010     8.3070 O             1 RES     
    7702 O           68.8750    75.6890    11.5620 O             1 RES     
    7703 Si          59.6420    79.2860     3.6580 Si            1 RES     
    7704 O           56.7420    77.7270     7.4510 O             1 RES     
    7705 Si          57.3690    61.2960    10.8940 Si            1 RES     
    7706 Si          80.6730    82.5360     9.5370 Si            1 RES     
    7707 O           62.3410    83.3180     7.6750 O             1 RES     
    7708 Si          55.5320    86.0130     8.4250 Si            1 RES     
    7709 Si          73.0290    93.0570    11.1760 Si            1 RES     
    7710 Si          90.9590    58.1710     7.5530 Si            1 RES     
    7711 OS          69.6480    98.2890    13.7740 OS            1 RES     
    7712 O           84.4150    72.6970     5.0520 O             1 RES     
    7713 O           71.5930    53.0260     9.0560 O             1 RES     
    7714 Si          85.2580    64.0110    11.5060 Si            1 RES     
    7715 O           65.8700    82.0780     9.6110 O             1 RES     
    7716 O           77.1660    68.1990     2.9840 O             1 RES     
    7717 O           52.9420    79.6550     4.5650 O             1 RES     
    7718 Si          91.6730    93.7280     5.2710 Si            1 RES     
    7719 O           89.1920    50.5770     7.9150 O             1 RES     
    7720 O           62.7510    69.8360     9.1320 O             1 RES     
    7721 O           71.9460    92.2760    10.3200 O             1 RES     
    7722 O           64.1980    88.2730     2.9000 O             1 RES     
    7723 O           79.3360    82.1020     8.8840 O             1 RES     
    7724 O           99.7930    60.4860     8.6050 O             1 RES     
    7725 O           76.2920    62.6820     9.6340 O             1 RES     
    7726 O           59.8200    75.0990    10.5220 O             1 RES     
    7727 Si          77.4390    69.6000     3.5680 Si            1 RES     
    7728 O           56.6230    64.8530     6.6910 O             1 RES     
    7729 O           58.6230    99.0540    10.4420 O             1 RES     
    7730 O           94.8180    76.8060    10.4470 O             1 RES     
    7731 O           61.7380    59.5000     1.6330 O             1 RES     
    7732 O           84.5170    74.8560     9.2050 O             1 RES     
    7733 O           70.2360    59.1000    10.6340 O             1 RES     
    7734 O           82.3420    71.8730    12.6260 O             1 RES     
    7735 Si          75.7150    91.7100     2.8710 Si            1 RES     
    7736 O           84.9960    69.4610     9.2060 O             1 RES     
    7737 Si          91.4990    69.5180    11.1150 Si            1 RES     
    7738 Si          65.2730    60.2900    12.5260 Si            1 RES     
    7739 O           86.2120    68.2560     7.4380 O             1 RES     
    7740 O           79.3970    86.5730     9.2700 O             1 RES     
    7741 O           55.0300    73.2810    10.2570 O             1 RES     
    7742 Si          50.3920    92.2210     4.1890 Si            1 RES     
    7743 O           52.2260    76.4020     2.4270 O             1 RES     
    7744 O           99.4230    68.8260    12.6940 O             1 RES     
    7745 O           77.1160    77.9850     5.1480 O             1 RES     
    7746 Si          58.2650    90.9430     4.4180 Si            1 RES     
    7747 O           91.1300    72.0980     6.6650 O             1 RES     
    7748 O           95.5570    81.9600     4.3400 O             1 RES     
    7749 O           50.1660    69.6860     6.1490 O             1 RES     
    7750 Si          83.2720    58.2920    11.3850 Si            1 RES     
    7751 O           72.7000    50.6170     4.0170 O             1 RES     
    7752 O           63.0960    97.7250     5.9260 O             1 RES     
    7753 Si          72.7790    51.7000     2.8520 Si            1 RES     
    7754 O           66.3630    63.3470     5.6630 O             1 RES     
    7755 O           80.9870    98.2450    10.0420 O             1 RES     
    7756 O           87.2390    99.7590     3.5030 O             1 RES     
    7757 Si          80.8900    66.7310     3.3720 Si            1 RES     
    7758 O           76.4990    94.3450     9.2110 O             1 RES     
    7759 O           99.2220    76.2600     7.9750 O             1 RES     
    7760 O           53.4010    89.1840    11.4160 O             1 RES     
    7761 O           83.9070    81.6450     7.3760 O             1 RES     
    7762 O           93.4510    65.8270    10.1300 O             1 RES     
    7763 Si          96.0430    75.0580     5.6030 Si            1 RES     
    7764 O           51.8810    76.1950     7.7000 O             1 RES     
    7765 O           67.3560    52.2180    11.3970 O             1 RES     
    7766 O           57.1550    67.3080     4.0380 O             1 RES     
    7767 Si          92.4350    60.2010     5.9260 Si            1 RES     
    7768 Si          90.6900    53.0210    11.3890 Si            1 RES     
    7769 O           69.3480    50.7980     2.3270 O             1 RES     
    7770 O           69.9280    79.8800    10.9250 O             1 RES     
    7771 O           69.4570    70.9430     7.8900 O             1 RES     
    7772 O           60.7040    63.2600     9.7220 O             1 RES     
    7773 Si          50.4770    51.6020     5.9420 Si            1 RES     
    7774 O           59.4100    51.3120    10.7100 O             1 RES     
    7775 Si          68.7360    67.6360     9.5480 Si            1 RES     
    7776 O           55.7520    97.8330    12.9800 O             1 RES     
    7777 O           69.8340    57.1440     8.9810 O             1 RES     
    7778 Si          68.1230    58.5540     3.6600 Si            1 RES     
    7779 Si          58.9940    83.1040    10.0430 Si            1 RES     
    7780 O           85.6350    87.2760     4.9160 O             1 RES     
    7781 O           93.9320    80.7370     6.0400 O             1 RES     
    7782 Si          60.3410    86.8300     3.1460 Si            1 RES     
    7783 OS          83.7480    83.1240    13.3250 OS            1 RES     
    7784 Si          57.3310    93.7630     4.9050 Si            1 RES     
    7785 O           62.4480    73.4040     3.5910 O             1 RES     
    7786 O           96.8580    91.0190     2.4920 O             1 RES     
    7787 Si          61.1820    70.0760     8.8680 Si            1 RES     
    7788 O           82.3270    86.7830     2.1510 O             1 RES     
    7789 Si          76.8970    82.7770    12.0530 Si            1 RES     
    7790 O           81.1770    88.7570     3.8720 O             1 RES     
    7791 O           92.7610    86.9040     6.8720 O             1 RES     
    7792 O           50.1790    95.8030    11.0080 O             1 RES     
    7793 O           64.9690    89.8680     4.7060 O             1 RES     
    7794 Si          76.2080    85.7160    11.4330 Si            1 RES     
    7795 O           83.8200    51.8110    12.2470 O             1 RES     
    7796 O           82.2410    74.6310     8.4590 O             1 RES     
    7797 O           94.9250    56.9980    12.2900 O             1 RES     
    7798 Si          60.0470    56.9750     9.0140 Si            1 RES     
    7799 O           54.9290    63.9990     8.3470 O             1 RES     
    7800 Si          73.0970    84.0080     6.9800 Si            1 RES     
    7801 O           85.3680    99.2480     6.6070 O             1 RES     
    7802 O           88.6330    53.1870     8.2330 O             1 RES     
    7803 O           74.3640    75.9410     9.8980 O             1 RES     
    7804 Si          51.3860    54.4330     6.3760 Si            1 RES     
    7805 O           86.0720    75.4030    10.9870 O             1 RES     
    7806 Si          83.3970    50.4560     4.1020 Si            1 RES     
    7807 O           97.7770    95.4010     4.5940 O             1 RES     
    7808 O           99.6460    50.9140     7.0600 O             1 RES     
    7809 Si          99.7490    92.7510     8.8430 Si            1 RES     
    7810 O           97.7090    70.8010    12.2820 O             1 RES     
    7811 O           71.0710    55.0660     7.7670 O             1 RES     
    7812 Si          67.6200    58.2770    12.5210 Si            1 RES     
    7813 O           73.8990    58.0890     8.4830 O             1 RES     
    7814 O           94.9940    56.8110     5.0230 O             1 RES     
    7815 O           88.3840    77.7090     9.6910 O             1 RES     
    7816 Si          52.3000    99.5910     9.1770 Si            1 RES     
    7817 O           61.0760    67.9080    12.0650 O             1 RES     
    7818 Si          52.4870    95.5200     5.7490 Si            1 RES     
    7819 O           55.1070    63.1130     2.0220 O             1 RES     
    7820 O           67.3130    67.3870    10.0950 O             1 RES     
    7821 O           88.8030    68.8680     3.1010 O             1 RES     
    7822 O           56.2230    55.3790     1.6200 O             1 RES     
    7823 O           83.8930    87.3990    11.2720 O             1 RES     
    7824 OS          85.5880    87.9490    13.8270 OS            1 RES     
    7825 O           55.7350    72.1460    12.4840 O             1 RES     
    7826 Si          80.0550    70.4620     9.8690 Si            1 RES     
    7827 O           56.6910    71.9270     4.9560 O             1 RES     
    7828 O           67.7340    71.6430     3.5230 O             1 RES     
    7829 O           69.7000    95.8050    10.1940 O             1 RES     
    7830 O           71.0350    60.2870     8.9720 O             1 RES     
    7831 Si          50.3040    61.6260     9.5100 Si            1 RES     
    7832 Si          97.8920    89.8850     5.9730 Si            1 RES     
    7833 Si          75.8660    94.0270    10.5700 Si            1 RES     
    7834 O           53.1940    50.0020     7.9500 O             1 RES     
    7835 O           83.6470    84.4260     4.8550 O             1 RES     
    7836 Si          80.7270    92.4020     8.4770 Si            1 RES     
    7837 Si          84.7700    87.8690     3.8180 Si            1 RES     
    7838 O           79.2810    70.1280    11.1720 O             1 RES     
    7839 O           65.4150    57.7660     1.5950 O             1 RES     
    7840 O           68.3850    85.8390     4.7270 O             1 RES     
    7841 Si          95.2900    75.8680     9.3100 Si            1 RES     
    7842 Si          92.5050    72.3130    10.4510 Si            1 RES     
    7843 Si          65.7320    79.5360     3.7050 Si            1 RES     
    7844 Si          59.6690    97.8430     5.4930 Si            1 RES     
    7845 O           62.3740    98.9220     8.1810 O             1 RES     
    7846 O           74.6360    50.9360     7.9300 O             1 RES     
    7847 O           69.8080    53.0050     3.2320 O             1 RES     
    7848 O           85.4430    50.0010    12.9260 O             1 RES     
    7849 O           56.8130    77.9240     9.9120 O             1 RES     
    7850 O           86.6000    88.8690     6.7020 O             1 RES     
    7851 Si          60.1060    69.0830    11.7060 Si            1 RES     
    7852 O           69.5560    65.3870     7.1320 O             1 RES     
    7853 O           63.4780    97.4240     3.3610 O             1 RES     
    7854 OS          83.1620    61.7520    13.1050 OS            1 RES     
    7855 O           60.6930    76.6800     1.2410 O             1 RES     
    7856 O           72.8730    72.8310    11.1670 O             1 RES     
    7857 O           61.8470    71.1590     4.2940 O             1 RES     
    7858 Si          71.9760    62.3940    12.3550 Si            1 RES     
    7859 O           62.8560    59.6200     9.3420 O             1 RES     
    7860 Si          65.5080    88.7700     3.6850 Si            1 RES     
    7861 O           87.2780    92.6790     9.7680 O             1 RES     
    7862 O           58.5470    60.3990     4.4330 O             1 RES     
    7863 O           54.3780    96.6300     8.9120 O             1 RES     
    7864 O           79.9050    95.6210     6.1860 O             1 RES     
    7865 Si          83.6080    64.0500     6.7690 Si            1 RES     
    7866 O           56.9040    64.7780     2.4800 O             1 RES     
    7867 O           67.7290    96.9900     5.8550 O             1 RES     
    7868 O           63.0630    52.0570     5.8520 O             1 RES     
    7869 O           64.9550    70.6690     8.2220 O             1 RES     
    7870 O           76.1070    91.4050     4.3750 O             1 RES     
    7871 O           76.7350    76.8440     2.9100 O             1 RES     
    7872 O           80.0560    52.9350     5.7890 O             1 RES     
    7873 O           95.2980    71.2120     4.8160 O             1 RES     
    7874 O           59.9770    60.8910     9.1250 O             1 RES     
    7875 Si          65.7720    82.3240    11.1840 Si            1 RES     
    7876 O           75.9570    82.4380     4.9530 O             1 RES     
    7877 O           99.6260    88.0500     4.0950 O             1 RES     
    7878 Si          77.7560    72.5190     3.0090 Si            1 RES     
    7879 O           56.1310    68.0340    12.6980 O             1 RES     
    7880 Si          79.6580    62.5070     4.9570 Si            1 RES     
    7881 Si          70.6900    53.4160     4.4270 Si            1 RES     
    7882 O           68.0140    87.6140     6.4480 O             1 RES     
    7883 Si          57.4400    99.6480     6.7860 Si            1 RES     
    7884 O           61.4600    92.1930     3.2080 O             1 RES     
    7885 O           57.4840    92.2850     4.2520 O             1 RES     
    7886 O           70.4090    91.3470     8.5420 O             1 RES     
    7887 O           77.7690    65.8050     3.7780 O             1 RES     
    7888 O           70.8050    72.5490     6.6200 O             1 RES     
    7889 O           97.1940    59.1690     3.9050 O             1 RES     
    7890 OS          93.1990    82.2580    11.8910 OS            1 RES     
    7891 OS          52.5250    51.7930    12.7490 OS            1 RES     
    7892 O           65.8720    81.1240     3.5680 O             1 RES     
    7893 OS          86.9670    73.0980    12.0190 OS            1 RES     
    7894 O           74.6860    55.7720     8.6550 O             1 RES     
    7895 Si          53.3320    67.0320     2.8190 Si            1 RES     
    7896 O           96.1960    69.5610     9.2260 O             1 RES     
    7897 O           54.2990    61.6510     9.3740 O             1 RES     
    7898 Si          93.9040    70.4480     4.8120 Si            1 RES     
    7899 O           74.8680    85.8760    12.2940 O             1 RES     
    7900 O           73.6580    68.9010     3.6840 O             1 RES     
    7901 Si          64.1220    87.2970    12.4430 Si            1 RES     
    7902 Si          98.3240    53.2150     9.4960 Si            1 RES     
    7903 O           58.7600    95.0380    12.2370 O             1 RES     
    7904 Si          85.3480    84.2110     9.5120 Si            1 RES     
    7905 Si          97.0210    50.0510    12.4420 Si            1 RES     
    7906 O           69.9310    83.8980     5.2210 O             1 RES     
    7907 O           57.6010    84.5360     2.5650 O             1 RES     
    7908 O           65.1770    94.2300     2.7320 O             1 RES     
    7909 O           91.9330    87.9030     4.7360 O             1 RES     
    7910 Si          56.2890    67.4690     9.5750 Si            1 RES     
    7911 O           75.4360    61.1810    11.7760 O             1 RES     
    7912 O           60.2860    51.4390     5.2360 O             1 RES     
    7913 O           73.4720    93.8750     7.4750 O             1 RES     
    7914 O           56.0160    94.9060     9.1190 O             1 RES     
    7915 Si          62.5860    59.9290     3.0050 Si            1 RES     
    7916 O           52.3750    65.4810     5.2860 O             1 RES     
    7917 O           77.3190    79.2610    12.4900 O             1 RES     
    7918 Si          55.0570    63.0090     9.6470 Si            1 RES     
    7919 O           68.5420    55.3050     7.9260 O             1 RES     
    7920 O           98.6410    93.7890     8.4790 O             1 RES     
    7921 O           61.8310    80.9040    11.1600 O             1 RES     
    7922 O           85.0670    63.4710     6.3520 O             1 RES     
    7923 Si          92.0050    88.9920     3.5840 Si            1 RES     
    7924 O           58.0640    90.0100     3.0870 O             1 RES     
    7925 Si          78.7100    87.9400     8.8920 Si            1 RES     
    7926 Si          51.4570    57.3840     7.0950 Si            1 RES     
    7927 O           69.5950    81.6930     6.4870 O             1 RES     
    7928 Si          70.2910    60.6330    10.3250 Si            1 RES     
    7929 O           99.4830    59.5720     4.3120 O             1 RES     
    7930 Si          99.2360    80.9390    10.2300 Si            1 RES     
    7931 O           79.8460    91.2250     8.0550 O             1 RES     
    7932 Si          69.0220    75.9820     7.4110 Si            1 RES     
    7933 O           73.4690    63.3370     9.5400 O             1 RES     
    7934 Si          73.9240    74.9980     8.7160 Si            1 RES     
    7935 OS          83.2710    87.9530    13.2690 OS            1 RES     
    7936 OS          72.4530    71.1830    13.0020 OS            1 RES     
    7937 O           75.8540    75.8150     5.0220 O             1 RES     
    7938 O           90.4720    81.4740     8.0220 O             1 RES     
    7939 Si          99.0790    59.2880     7.9830 Si            1 RES     
    7940 OS          56.2560    56.2770    13.5190 OS            1 RES     
    7941 Si          84.2060    90.7980     4.4520 Si            1 RES     
    7942 O           88.6100    87.7160     3.1690 O             1 RES     
    7943 Si          57.0770    70.2490     8.8390 Si            1 RES     
    7944 Si          98.9090    96.5840    11.4290 Si            1 RES     
    7945 O           88.3370    76.5730     2.7100 O             1 RES     
    7946 Si          84.5520    59.9310     7.0270 Si            1 RES     
    7947 Si          70.0360    81.2220    10.1190 Si            1 RES     
    7948 O           52.8930    72.2920     2.5400 O             1 RES     
    7949 Si          77.6670    66.0710     7.8400 Si            1 RES     
    7950 O           78.8060    63.8260     5.0430 O             1 RES     
    7951 Si          74.8180    62.7050    10.9700 Si            1 RES     
    7952 Si          98.9160    83.1910     8.2340 Si            1 RES     
    7953 Si          69.3220    88.0950    12.5930 Si            1 RES     
    7954 Si          51.9380    85.8990    11.6940 Si            1 RES     
    7955 O           95.7460    87.2740    11.2740 O             1 RES     
    7956 OS          91.7790    80.2140    12.0810 OS            1 RES     
    7957 OS          59.6630    80.5690    12.2770 OS            1 RES     
    7958 Si          69.9030    64.9890     8.5670 Si            1 RES     
    7959 O           75.7710    54.4830     6.4720 O             1 RES     
    7960 OS          95.7780    72.3830    11.6510 OS            1 RES     
    7961 O           98.9850    82.2290     4.6010 O             1 RES     
    7962 Si          87.7750    89.8480     6.4840 Si            1 RES     
    7963 O           58.1810    51.0180     6.6000 O             1 RES     
    7964 O           57.9860    59.8280     2.0970 O             1 RES     
    7965 Si          79.5330    83.3360     5.4390 Si            1 RES     
    7966 O           96.2350    73.4670     5.7550 O             1 RES     
    7967 Si          67.2150    78.3100     6.4770 Si            1 RES     
    7968 O           73.2530    57.7300     5.9480 O             1 RES     
    7969 O           70.2230    91.7250     6.0320 O             1 RES     
    7970 Si          64.1060    52.9270    12.3560 Si            1 RES     
    7971 O           69.4250    76.0820     8.9530 O             1 RES     
    7972 Si          57.2080    98.9900     9.7760 Si            1 RES     
    7973 OS          63.0180    87.7460    13.3970 OS            1 RES     
    7974 Si          99.0280    66.6680     9.7360 Si            1 RES     
    7975 O           88.7140    89.7180     7.7470 O             1 RES     
    7976 Si          80.7840    96.8420     5.9520 Si            1 RES     
    7977 O           60.4830    79.8580     4.8470 O             1 RES     
    7978 O           93.3200    91.9460     1.6670 O             1 RES     
    7979 Si          68.2410    62.9120    10.1490 Si            1 RES     
    7980 O           60.7840    93.1810    10.3760 O             1 RES     
    7981 O           92.2450    92.8690     9.2390 O             1 RES     
    7982 Si          78.5000    72.7930     8.3570 Si            1 RES     
    7983 O           54.2370    71.0310    10.8790 O             1 RES     
    7984 O           81.8450    58.4730    11.9550 O             1 RES     
    7985 O           94.0220    72.2570     9.9290 O             1 RES     
    7986 Si          89.1410    99.3650     6.8780 Si            1 RES     
    7987 OS          60.8590    65.6080    13.4570 OS            1 RES     
    7988 Si          55.3790    50.2450     4.5480 Si            1 RES     
    7989 O           58.0870    60.3600     7.2540 O             1 RES     
    7990 O           79.9120    93.3700     9.5960 O             1 RES     
    7991 Si          93.3470    67.3420     9.7490 Si            1 RES     
    7992 O           71.2180    88.5560     4.1250 O             1 RES     
    7993 Si          96.2780    68.2610    10.0530 Si            1 RES     
    7994 O           69.3690    89.5920     7.2420 O             1 RES     
    7995 O           97.3990    63.5140     4.6950 O             1 RES     
    7996 Si          79.8150    83.5000    12.2720 Si            1 RES     
    7997 O           79.7090    54.6080     3.9520 O             1 RES     
    7998 O           74.4790    56.5760     3.9720 O             1 RES     
    7999 Si          95.4830    50.4720     2.9760 Si            1 RES     
    8000 O           92.9600    71.7040     4.9030 O             1 RES     
    8001 O           61.2310    69.0010     2.7990 O             1 RES     
    8002 Si          80.8700    58.1510     3.5780 Si            1 RES     
    8003 Si          60.7240    94.5390     9.5680 Si            1 RES     
    8004 O           94.5910    53.2770    10.0920 O             1 RES     
    8005 OS          90.6880    62.9890    12.1640 OS            1 RES     
    8006 O           73.7620    84.0750     5.5450 O             1 RES     
    8007 O           78.5770    69.4320     4.6810 O             1 RES     
    8008 Si          98.8450    82.4750     3.0400 Si            1 RES     
    8009 O           52.2640    78.7650    11.3580 O             1 RES     
    8010 O           58.7090    68.4050    12.0580 O             1 RES     
    8011 Si          86.6600    79.8290     3.7120 Si            1 RES     
    8012 O           74.6190    71.3980     7.7070 O             1 RES     
    8013 Si          89.7760    77.3710    10.4760 Si            1 RES     
    8014 OS          98.4250    80.9370    11.5870 OS            1 RES     
    8015 O           86.1050    53.2680     8.2910 O             1 RES     
    8016 O           62.4430    51.3040     8.2790 O             1 RES     
    8017 Si          83.4360    66.4340    10.8380 Si            1 RES     
    8018 Si          80.7530    54.1730     5.0870 Si            1 RES     
    8019 O           56.1070    88.0600     5.8620 O             1 RES     
    8020 O           88.6680    86.4770     8.9480 O             1 RES     
    8021 Si          61.1630    59.6020     5.7720 Si            1 RES     
    8022 Si          90.3730    64.4940     8.7190 Si            1 RES     
    8023 O           99.6810    82.3530     7.0340 O             1 RES     
    8024 OS          64.2170    72.5440    13.1760 OS            1 RES     
    8025 O           83.6960    65.5260     7.1440 O             1 RES     
    8026 O           84.6540    99.6130     3.8450 O             1 RES     
    8027 O           50.6790    80.3410     5.3820 O             1 RES     
    8028 Si          69.0850    98.6460    12.2470 Si            1 RES     
    8029 Si          72.1510    52.9900    10.5480 Si            1 RES     
    8030 O           84.7300    86.8210     2.4400 O             1 RES     
    8031 O           52.4910    68.3390     2.9200 O             1 RES     
    8032 Si          96.3210    91.5570     3.9180 Si            1 RES     
    8033 O           85.5150    62.7300     1.6720 O             1 RES     
    8034 O           70.6750    85.7400     9.5880 O             1 RES     
    8035 O           94.1660    76.3470     8.2340 O             1 RES     
    8036 Si          50.5010    75.4290     7.9210 Si            1 RES     
    8037 O           75.2210    89.4880     5.9300 O             1 RES     
    8038 OS          96.3090    85.2350    12.6710 OS            1 RES     
    8039 O           69.1550    57.3510     3.9290 O             1 RES     
    8040 O           74.3180    75.4750     7.2570 O             1 RES     
    8041 O           94.5330    92.4470    10.6150 O             1 RES     
    8042 O           82.8890    87.2560     8.9580 O             1 RES     
    8043 OS          51.4300    57.6250    13.2710 OS            1 RES     
    8044 Si          60.0770    68.5520     6.3800 Si            1 RES     
    8045 Si          65.4110    62.2030     8.9330 Si            1 RES     
    8046 Si          73.5250    72.0570    12.3530 Si            1 RES     
    8047 O           82.6580    79.0700    10.7970 O             1 RES     
    8048 O           68.9780    61.5120    10.0640 O             1 RES     
    8049 OS          75.6930    69.3670    13.4870 OS            1 RES     
    8050 O           92.1530    59.8200     4.4030 O             1 RES     
    8051 OS          81.5440    67.1520    13.7880 OS            1 RES     
    8052 O           68.3820    57.7760    11.1990 O             1 RES     
    8053 Si          69.9120    75.9010    10.4390 Si            1 RES     
    8054 Si          71.2670    89.6860     3.0300 Si            1 RES     
    8055 O           60.3610    94.5950     2.8460 O             1 RES     
    8056 O           69.7400    95.9700     3.4200 O             1 RES     
    8057 Si          68.8430    60.6020     5.8770 Si            1 RES     
    8058 O           61.3070    74.0840     8.6510 O             1 RES     
    8059 OS          71.1670    51.4560    13.9310 OS            1 RES     
    8060 O           58.0970    79.2030     4.1690 O             1 RES     
    8061 O           83.8360    60.8010     2.9710 O             1 RES     
    8062 O           51.1100    70.6060     3.1090 O             1 RES     
    8063 Si          96.7980    70.7630     8.3390 Si            1 RES     
    8064 O           62.9400    88.4750     8.8170 O             1 RES     
    8065 Si          79.6600    94.8580    10.0510 Si            1 RES     
    8066 O           61.2120    65.4640     8.3510 O             1 RES     
    8067 Si          89.6190    52.0610     8.6460 Si            1 RES     
    8068 OS          69.3910    89.6610    12.7410 OS            1 RES     
    8069 O           97.5620    57.4470     5.5700 O             1 RES     
    8070 Si          89.2700    86.7440    10.3940 Si            1 RES     
    8071 O           93.0340    68.0030     8.3440 O             1 RES     
    8072 Si          81.7660    56.8110     9.2550 Si            1 RES     
    8073 O           52.4310    70.7180     6.6690 O             1 RES     
    8074 Si          91.7730    94.6900    12.3280 Si            1 RES     
    8075 O           78.3720    83.8490     7.0030 O             1 RES     
    8076 OS          62.9090    77.3060    12.5350 OS            1 RES     
    8077 Si          54.1990    55.0560    10.8450 Si            1 RES     
    8078 O           89.9540    55.4880     5.1340 O             1 RES     
    8079 Si          52.1290    64.5270     4.0690 Si            1 RES     
    8080 Si          73.8080    58.7590     7.0580 Si            1 RES     
    8081 O           65.0930    50.7780     4.4410 O             1 RES     
    8082 O           84.8950    54.1750     6.5650 O             1 RES     
    8083 OS          84.3920    79.4680    12.5620 OS            1 RES     
    8084 O           53.3300    72.7720     8.3380 O             1 RES     
    8085 O           68.1330    59.5050     2.4330 O             1 RES     
    8086 O           62.2920    94.5360     9.1110 O             1 RES     
    8087 O           56.9350    70.8710     7.3810 O             1 RES     
    8088 Si          58.2440    87.4110     8.3920 Si            1 RES     
    8089 OS          75.8330    65.4440    13.8280 OS            1 RES     
    8090 Si          63.5490    84.3190    11.9030 Si            1 RES     
    8091 Si          69.7110    57.5830    10.4450 Si            1 RES     
    8092 Si          78.6080    65.3720     4.9640 Si            1 RES     
    8093 O           89.9930    54.1720     3.0720 O             1 RES     
    8094 Si          75.0340    82.0940     8.5620 Si            1 RES     
    8095 O           93.6290    83.2150     5.0040 O             1 RES     
    8096 Si          61.3430    91.5240     4.6710 Si            1 RES     
    8097 Si          77.0130    63.1390     8.3330 Si            1 RES     
    8098 Si          98.9600    63.6160     4.9470 Si            1 RES     
    8099 O           76.9220    79.1920     9.9540 O             1 RES     
    8100 Si          56.3490    76.5680     6.4490 Si            1 RES     
    8101 O           76.2180    53.1580    10.9840 O             1 RES     
    8102 O           83.2120    66.3800     9.3320 O             1 RES     
    8103 OS          56.4260    84.7250    12.1420 OS            1 RES     
    8104 O           69.1830    98.4110     2.8480 O             1 RES     
    8105 Si          52.8540    96.5740     8.6460 Si            1 RES     
    8106 O           90.5630    85.5950     5.7950 O             1 RES     
    8107 O           83.2630    60.6490     7.6910 O             1 RES     
    8108 O           94.8170    99.4930     6.4370 O             1 RES     
    8109 O           65.8050    50.2400    11.7960 O             1 RES     
    8110 Si          79.1690    90.2680     6.9740 Si            1 RES     
    8111 O           74.2300    82.0940     9.9360 O             1 RES     
    8112 OS          86.0060    64.0500    12.9430 OS            1 RES     
    8113 Si          54.1400    81.8930    12.2360 Si            1 RES     
    8114 O           63.9600    85.7890    11.8600 O             1 RES     
    8115 O           60.1560    67.0980     6.7790 O             1 RES     
    8116 O           81.4100    88.4720    11.0010 O             1 RES     
    8117 O           66.3110    59.1870    12.1930 O             1 RES     
    8118 O           99.7160    56.1130    11.9960 O             1 RES     
    8119 Si          96.2190    56.7850     6.0930 Si            1 RES     
    8120 OS          99.4500    58.6740    12.1600 OS            1 RES     
    8121 O           50.5590    74.8310     9.4250 O             1 RES     
    8122 O           81.0190    62.8100     4.2520 O             1 RES     
    8123 O           92.5120    63.8110     3.3200 O             1 RES     
    8124 O           94.9820    85.0040     3.9540 O             1 RES     
    8125 Si          97.8900    90.3320     9.3920 Si            1 RES     
    8126 OS          90.7650    69.2600    12.4870 OS            1 RES     
    8127 O           99.3310    84.6780     8.0710 O             1 RES     
    8128 O           53.8620    66.9500     1.4150 O             1 RES     
    8129 O           56.5610    59.2230     3.8240 O             1 RES     
    8130 O           84.6850    62.5290    11.3780 O             1 RES     
    8131 Si          74.1050    89.4900    10.4800 Si            1 RES     
    8132 O           83.2570    50.2650     5.6660 O             1 RES     
    8133 O           72.7900    59.8900     7.1890 O             1 RES     
    8134 O           82.6950    85.6060     6.7950 O             1 RES     
    8135 OS          55.9340    78.2390    12.2320 OS            1 RES     
    8136 O           79.9530    65.9870     4.5410 O             1 RES     
    8137 Si          95.8740    63.8780     8.0790 Si            1 RES     
    8138 OS          93.1760    74.2670    13.5710 OS            1 RES     
    8139 O           84.1640    67.8210    10.9570 O             1 RES     
    8140 Si          99.1160    70.2060    11.9690 Si            1 RES     
    8141 O           65.7400    60.8380     8.1330 O             1 RES     
    8142 Si          55.7440    96.3750     9.5310 Si            1 RES     
    8143 O           88.2740    74.3050    10.1730 O             1 RES     
    8144 O           93.1520    51.7600     6.8610 O             1 RES     
    8145 O           74.4440    66.8930     9.2070 O             1 RES     
    8146 Si          97.1230    94.1060     8.0430 Si            1 RES     
    8147 Si          82.3110    63.8020     4.0170 Si            1 RES     
    8148 O           77.0840    50.2090     8.7460 O             1 RES     
    8149 Si          92.5260    74.7440    12.2770 Si            1 RES     
    8150 O           98.5480    59.5350     6.5140 O             1 RES     
    8151 O           82.0830    55.2400     9.5810 O             1 RES     
    8152 Si          80.7770    56.9750     6.3810 Si            1 RES     
    8153 O           82.6560    67.3460     3.5770 O             1 RES     
    8154 Si          72.9830    96.9500     5.2330 Si            1 RES     
    8155 Si          60.7820    72.8880     7.5800 Si            1 RES     
    8156 O           87.9150    85.4680     2.4360 O             1 RES     
    8157 Si          78.5620    60.2560     3.2980 Si            1 RES     
    8158 O           89.5970    58.4610     6.8880 O             1 RES     
    8159 OS          78.0860    77.0470    12.8440 OS            1 RES     
    8160 Si          62.4540    50.0520     9.2110 Si            1 RES     
    8161 O           75.1730    59.3400     6.4250 O             1 RES     
    8162 O           83.3330    94.0330    10.0310 O             1 RES     
    8163 O           91.8390    74.0760     5.2260 O             1 RES     
    8164 Si          87.3600    67.2670     7.9960 Si            1 RES     
    8165 Si          78.2610    78.7300     5.8670 Si            1 RES     
    8166 Si          80.2820    58.1480    12.0040 Si            1 RES     
    8167 O           53.8730    52.3210     7.7110 O             1 RES     
    8168 O           64.0220    60.2330    11.5570 O             1 RES     
    8169 Si          72.5800    63.5060     8.3100 Si            1 RES     
    8170 O           99.1180    51.8730     9.3660 O             1 RES     
    8171 Si          98.9490    64.0960     8.0240 Si            1 RES     
    8172 Si          96.8790    53.8960     6.8860 Si            1 RES     
    8173 O           85.4650    82.8620     6.0240 O             1 RES     
    8174 O           77.1510    87.9040     8.7450 O             1 RES     
    8175 Si          67.7620    73.1290     3.9820 Si            1 RES     
    8176 O           76.4320    67.0710     7.9550 O             1 RES     
    8177 O           73.7870    78.9780    13.9750 O             1 RES     
    8178 O           64.9030    72.0870     6.1110 O             1 RES     
    8179 O           66.5420    93.3890     8.1150 O             1 RES     
    8180 O           50.9190    72.9880     4.2150 O             1 RES     
    8181 Si          67.7200    63.2740     4.9340 Si            1 RES     
    8182 O           55.1420    92.4580     8.9610 O             1 RES     
    8183 O           84.5830    58.8080     5.8920 O             1 RES     
    8184 O           50.6930    72.6550     1.5560 O             1 RES     
    8185 O           77.9120    94.4110     6.9660 O             1 RES     
    8186 Si          98.7060    62.1020    12.1750 Si            1 RES     
    8187 OS          68.3710    63.4360    11.6530 OS            1 RES     
    8188 O           90.0080    54.3710    11.6840 O             1 RES     
    8189 O           68.3840    64.6960     5.1130 O             1 RES     
    8190 O           55.2630    96.3220    11.0400 O             1 RES     
    8191 O           97.8390    71.1070     5.3680 O             1 RES     
    8192 Si          76.3970    65.0080    12.4620 Si            1 RES     
    8193 O           92.3170    76.3140     6.2530 O             1 RES     
    8194 O           75.3350    57.2390    10.7060 O             1 RES     
    8195 Si          81.4810    76.0880     8.1040 Si            1 RES     
    8196 O           99.2420    86.2610     5.9950 O             1 RES     
    8197 O           96.9280    52.4810     9.7930 O             1 RES     
    8198 O           86.5390    80.8970     7.4160 O             1 RES     
    8199 O           82.5680    71.7720     6.0700 O             1 RES     
    8200 O           51.2920    69.6120     8.2810 O             1 RES     
    8201 O           74.1240    62.2340     5.0580 O             1 RES     
    8202 Si          53.8400    53.8590     8.0030 Si            1 RES     
    8203 Si          52.7330    57.5870     9.8720 Si            1 RES     
    8204 O           57.5060    75.9090    11.4880 O             1 RES     
    8205 Si          58.4160    74.7610     7.8710 Si            1 RES     
    8206 OS          51.2370    66.9980    13.2580 OS            1 RES     
    8207 O           64.4070    52.7210     7.7180 O             1 RES     
    8208 O           75.0570    90.4720    11.2770 O             1 RES     
    8209 O           71.3450    81.9200     4.4470 O             1 RES     
    8210 Si          61.9350    89.3810     9.6200 Si            1 RES     
    8211 Si          62.9040    52.3990     7.3500 Si            1 RES     
    8212 O           84.6530    54.1580     4.0910 O             1 RES     
    8213 Si          70.6580    82.5660     5.7020 Si            1 RES     
    8214 O           59.9550    56.7670    10.5320 O             1 RES     
    8215 O           56.3270    99.7210     5.6860 O             1 RES     
    8216 O           78.0230    73.1170     4.3880 O             1 RES     
    8217 Si          63.5940    51.3770     4.4050 Si            1 RES     
    8218 O           76.0460    62.7870     7.0520 O             1 RES     
    8219 Si          58.1330    89.0510    11.0320 Si            1 RES     
    8220 O           79.3400    50.0210     9.9030 O             1 RES     
    8221 OS          70.6290    69.5290    12.8240 OS            1 RES     
    8222 O           96.3110    66.6070     5.0460 O             1 RES     
    8223 O           85.1690    59.0720     8.2150 O             1 RES     
    8224 O           72.7640    86.2150    10.5800 O             1 RES     
    8225 O           71.7240    54.2780    11.3080 O             1 RES     
    8226 O           80.1630    69.2540     8.8420 O             1 RES     
    8227 Si          65.8320    67.6140    10.7090 Si            1 RES     
    8228 O           99.4760    89.6740     5.8810 O             1 RES     
    8229 O           67.5210    63.0590     3.3260 O             1 RES     
    8230 Si          63.2090    93.8680     5.5150 Si            1 RES     
    8231 O           86.7560    78.3420     3.2740 O             1 RES     
    8232 O           50.1930    58.2110     7.5440 O             1 RES     
    8233 O           90.9160    58.9220     9.0310 O             1 RES     
    8234 Si          85.5870    98.5000    12.5270 Si            1 RES     
    8235 OS          82.5230    80.9610    12.8910 OS            1 RES     
    8236 Si          76.3850    80.8540     4.7940 Si            1 RES     
    8237 Si          71.2500    50.8260    12.5180 Si            1 RES     
    8238 O           77.9370    78.7950     7.4510 O             1 RES     
    8239 Si          82.3110    51.7010    11.9900 Si            1 RES     
    8240 O           70.8080    53.1280     6.0350 O             1 RES     
    8241 O           90.3960    69.4270    10.0400 O             1 RES     
    8242 O           58.1620    94.6540     3.9810 O             1 RES     
    8243 O           81.2400    97.1840     7.4300 O             1 RES     
    8244 O           73.7120    52.8520    10.9510 O             1 RES     
    8245 Si          71.9530    99.8670     5.1650 Si            1 RES     
    8246 O           78.4080    82.9060    12.4150 O             1 RES     
    8247 Si          52.6000    89.6720    10.1250 Si            1 RES     
    8248 Si          64.2540    70.1500     9.5970 Si            1 RES     
    8249 Si          83.7110    61.3420    11.5940 Si            1 RES     
    8250 O           52.3200    86.0940    10.2110 O             1 RES     
    8251 Si          83.6340    86.2480     7.9020 Si            1 RES     
    8252 OS          60.7800    55.6640    12.5930 OS            1 RES     
    8253 O           74.1490    93.2310    10.0890 O             1 RES     
    8254 O           93.1390    78.5830    10.8060 O             1 RES     
    8255 O           97.2410    55.9820    11.9870 O             1 RES     
    8256 Si          63.1380    60.7930    10.3950 Si            1 RES     
    8257 O           67.1380    83.0670    11.5390 O             1 RES     
    8258 Si          76.4910    79.8150    11.3490 Si            1 RES     
    8259 O           68.5480    62.0030     5.4170 O             1 RES     
    8260 O           81.5450    85.9710     4.5650 O             1 RES     
    8261 Si          50.7740    97.0520     3.7350 Si            1 RES     
    8262 O           52.5520    57.5940     3.3250 O             1 RES     
    8263 Si          95.9920    82.1560     8.3110 Si            1 RES     
    8264 O           94.3380    96.0900     7.4270 O             1 RES     
    8265 Si          93.0130    79.5670     5.5960 Si            1 RES     
    8266 Si          93.2570    54.0900    10.1390 Si            1 RES     
    8267 O           56.7530    60.6080    12.1240 O             1 RES     
    8268 Si          77.4220    53.6870    10.1520 Si            1 RES     
    8269 O           70.0630    89.6790     1.9350 O             1 RES     
    8270 O           67.8060    50.4220     4.2120 O             1 RES     
    8271 O           88.2740    56.0910    11.2360 O             1 RES     
    8272 O           54.5930    89.7580     5.1360 O             1 RES     
    8273 Si          78.9100    51.9180     6.1170 Si            1 RES     
    8274 O           61.7560    56.7500     4.0410 O             1 RES     
    8275 Si          74.7800    87.9610     5.9250 Si            1 RES     
    8276 O           59.0370    58.2650     8.6630 O             1 RES     
    8277 O           87.7560    82.9340     2.4400 O             1 RES     
    8278 OS          54.5950    99.1400    14.5170 OS            1 RES     
    8279 O           74.6140    71.0140    11.8510 O             1 RES     
    8280 O           72.9150    75.2500     2.6540 O             1 RES     
    8281 O           60.7970    97.4620     6.5500 O             1 RES     
    8282 Si          71.8370    91.1810     9.1520 Si            1 RES     
    8283 O           59.1480    57.9230     3.5290 O             1 RES     
    8284 Si          90.5370    59.9940    10.0790 Si            1 RES     
    8285 O           55.7350    55.3190    11.2190 O             1 RES     
    8286 O           51.9570    88.9090     4.9630 O             1 RES     
    8287 O           89.2870    90.1540    10.0700 O             1 RES     
    8288 O           53.8470    67.0590     4.3490 O             1 RES     
    8289 O           67.8950    91.6230     7.1700 O             1 RES     
    8290 Si          91.1600    82.1080     9.2800 Si            1 RES     
    8291 Si          57.5300    68.7090     4.5500 Si            1 RES     
    8292 O           89.2430    60.7900     9.7430 O             1 RES     
    8293 O           88.8950    64.7690     9.3090 O             1 RES     
    8294 Si          82.5590    87.3940    10.4550 Si            1 RES     
    8295 O           86.1270    96.5280     6.8370 O             1 RES     
    8296 O           85.6710    57.5290     3.6010 O             1 RES     
    8297 Si          91.2410    55.5420     6.0670 Si            1 RES     
    8298 O           94.3530    97.2570     5.2990 O             1 RES     
    8299 O           71.0960    61.5510    11.3260 O             1 RES     
    8300 O           86.3140    97.7270     2.8030 O             1 RES     
    8301 Si          53.2690    57.8770     4.6890 Si            1 RES     
    8302 Si          94.3260    82.8360    10.9620 Si            1 RES     
    8303 O           55.9080    94.4830     4.7470 O             1 RES     
    8304 O           87.8670    98.5510     6.9750 O             1 RES     
    8305 Si          97.7890    79.7170     7.8140 Si            1 RES     
    8306 O           60.5360    95.8010    10.8160 O             1 RES     
    8307 O           80.0420    56.9110     3.1560 O             1 RES     
    8308 O           79.3280    75.3040     5.3200 O             1 RES     
    8309 O           52.6590    54.1220     4.7300 O             1 RES     
    8310 O           53.6920    89.0040     2.9030 O             1 RES     
    8311 O           96.0630    57.6860    10.0550 O             1 RES     
    8312 Si          92.8980    89.7550    11.7930 Si            1 RES     
    8313 Si          94.6300    82.1160     5.5620 Si            1 RES     
    8314 Si          56.6730    78.6420     4.1830 Si            1 RES     
    8315 O           85.2920    62.1580     4.2350 O             1 RES     
    8316 O           73.1660    65.8090     4.5290 O             1 RES     
    8317 OS          86.2370    83.6100    13.1820 OS            1 RES     
    8318 O           57.7920    69.5000     3.2450 O             1 RES     
    8319 Si          89.0220    89.1650     3.7950 Si            1 RES     
    8320 O           88.6900    89.3440     5.2950 O             1 RES     
    8321 Si          70.5840    96.4850     9.0350 Si            1 RES     
    8322 Si          76.1220    56.8770     3.7100 Si            1 RES     
    8323 O           70.6050    77.2480    10.9330 O             1 RES     
    8324 O           92.4750    93.0040     4.0240 O             1 RES     
    8325 O           98.6060    66.6050     3.7510 O             1 RES     
    8326 OS          81.7590    78.7610    13.1040 OS            1 RES     
    8327 O           67.4440    60.2380     6.5740 O             1 RES     
    8328 O           79.8050    59.3610     3.5760 O             1 RES     
    8329 O           74.9300    52.2730     5.9240 O             1 RES     
    8330 O           78.3520    60.3970     1.7180 O             1 RES     
    8331 O           95.0480    99.2860     3.9300 O             1 RES     
    8332 O           98.9510    91.4400     9.0160 O             1 RES     
    8333 Si          73.2200    94.8880     8.7860 Si            1 RES     
    8334 O           96.5110    80.6330     8.0910 O             1 RES     
    8335 Si          52.9310    70.3950    11.4460 Si            1 RES     
    8336 O           87.0440    86.4570     7.0990 O             1 RES     
    8337 OS          73.2340    95.3400    13.3730 OS            1 RES     
    8338 Si          54.5790    67.8720    12.0130 Si            1 RES     
    8339 O           81.9420    81.6430     9.0490 O             1 RES     
    8340 Si          70.8980    71.6300     7.9010 Si            1 RES     
    8341 O           70.6810    74.5750    10.5290 O             1 RES     
    8342 Si          99.8680    89.7510    11.6200 Si            1 RES     
    8343 O           96.8890    91.2540    10.2250 O             1 RES     
    8344 Si          91.9310    79.5470    10.6970 Si            1 RES     
    8345 O           50.9740    55.9620     6.5700 O             1 RES     
    8346 O           65.6560    84.3010     8.0550 O             1 RES     
    8347 O           61.1760    99.7570    10.1540 O             1 RES     
    8348 O           66.9850    70.3870     6.9930 O             1 RES     
    8349 O           71.1540    72.3680     9.2110 O             1 RES     
    8350 Si          57.0370    54.9610    12.2210 Si            1 RES     
    8351 O           59.8820    85.6720     2.0770 O             1 RES     
    8352 O           52.4470    50.3440    10.6000 O             1 RES     
    8353 Si          84.4530    95.6960    12.7250 Si            1 RES     
    8354 O           85.4760    50.9680    10.6270 O             1 RES     
    8355 O           88.3100    66.9160     6.8450 O             1 RES     
    8356 Si          99.5990    60.9130     3.3680 Si            1 RES     
    8357 O           80.3820    90.4390    11.8390 O             1 RES     
    8358 O           52.3780    98.0490     9.1800 O             1 RES     
    8359 O           61.9200    85.5030     8.8340 O             1 RES     
    8360 Si          61.6610    92.2820    11.3350 Si            1 RES     
    8361 O           66.2840    52.2140     9.1100 O             1 RES     
    8362 O           78.8800    73.1380     6.8910 O             1 RES     
    8363 Si          65.1530    58.2330     3.0780 Si            1 RES     
    8364 O           87.6080    66.6840     3.1480 O             1 RES     
    8365 O           66.5280    73.4710     4.8550 O             1 RES     
    8366 O           52.0400    69.3430    10.6480 O             1 RES     
    8367 O           76.6770    82.2300     8.4070 O             1 RES     
    8368 O           84.8490    95.1810     8.5100 O             1 RES     
    8369 O           94.2890    89.3050    11.3820 O             1 RES     
    8370 O           83.8490    70.4930    11.2560 O             1 RES     
    8371 O           92.6690    91.1440    11.1220 O             1 RES     
    8372 O           51.5370    76.3480    11.4820 O             1 RES     
    8373 O           81.1460    96.0030     2.2060 O             1 RES     
    8374 O           56.7110    87.0250     8.4600 O             1 RES     
    8375 O           90.4520    76.0420     4.4160 O             1 RES     
    8376 Si          51.4310    79.3570     4.3530 Si            1 RES     
    8377 Si          79.4410    94.1440     6.3630 Si            1 RES     
    8378 Si          84.5620    87.2000    12.6940 Si            1 RES     
    8379 O           65.4150    67.9690     3.7480 O             1 RES     
    8380 O           98.6890    79.9460     9.1440 O             1 RES     
    8381 Si          69.7040    85.1190     4.3010 Si            1 RES     
    8382 Si          59.2350    90.2780     8.5050 Si            1 RES     
    8383 O           60.1700    72.6780     3.4770 O             1 RES     
    8384 O           78.0260    98.4980     3.9550 O             1 RES     
    8385 Si          60.2590    57.0960     4.3300 Si            1 RES     
    8386 Si          60.7680    50.3680     4.1590 Si            1 RES     
    8387 O           57.4330    83.4430    10.3300 O             1 RES     
    8388 O           87.5930    62.8270     9.0240 O             1 RES     
    8389 O           89.2760    99.7930     5.2960 O             1 RES     
    8390 Si          90.4220    72.1860     8.0240 Si            1 RES     
    8391 O           91.5440    80.2860     5.8490 O             1 RES     
    8392 Si          65.1180    73.4980     5.5180 Si            1 RES     
    8393 O           87.2250    94.6220     8.1630 O             1 RES     
    8394 Si          87.4620    79.9450     6.6480 Si            1 RES     
    8395 O           78.2940    52.3970     9.6980 O             1 RES     
    8396 Si          99.9060    66.3460     2.8790 Si            1 RES     
    8397 O           52.1370    71.5170    12.1680 O             1 RES     
    8398 O           93.6060    84.1830    10.4770 O             1 RES     
    8399 Si          90.0440    72.8680     2.7750 Si            1 RES     
    8400 Si          80.3540    99.4740    11.0060 Si            1 RES     
    8401 O           60.4660    78.0500     3.3230 O             1 RES     
    8402 O           93.5030    79.4090     4.0760 O             1 RES     
    8403 O           62.3350    84.3870    10.9070 O             1 RES     
    8404 Si          80.2830    85.4870    10.0540 Si            1 RES     
    8405 O           51.5180    57.7760    10.8100 O             1 RES     
    8406 O           63.9350    98.6380    12.4890 O             1 RES     
    8407 O           61.8470    65.4370     5.8870 O             1 RES     
    8408 Si          86.3330    91.9210    10.7280 Si            1 RES     
    8409 Si          85.4250    99.3560     9.7630 Si            1 RES     
    8410 O           70.1260    60.3950     6.6900 O             1 RES     
    8411 O           92.1540    53.4420    10.9540 O             1 RES     
    8412 OS          98.7590    54.2680    13.4230 OS            1 RES     
    8413 O           84.3070    95.7400    11.1810 O             1 RES     
    8414 Si          78.9580    69.7090    12.6810 Si            1 RES     
    8415 O           63.5450    52.5430     3.3690 O             1 RES     
    8416 Si          60.8420    76.5980     2.8430 Si            1 RES     
    8417 Si          70.2770    73.7320     5.6520 Si            1 RES     
    8418 Si          64.4350    88.4700     8.2500 Si            1 RES     
    8419 O           64.3810    88.4590    11.4540 O             1 RES     
    8420 Si          90.9010    57.9910    12.3730 Si            1 RES     
    8421 Si          54.0140    62.4090     2.8490 Si            1 RES     
    8422 O           96.4900    55.3760     6.6270 O             1 RES     
    8423 O           93.7220    55.6280     2.8890 O             1 RES     
    8424 OS          59.7740    58.0690    12.8280 OS            1 RES     
    8425 O           61.2780    72.8880     6.1010 O             1 RES     
    8426 Si          84.9060    69.1140     7.6960 Si            1 RES     
    8427 O           64.3030    57.0030     3.5270 O             1 RES     
    8428 O           57.6360    54.7540     3.4860 O             1 RES     
    8429 O           51.1770    86.5940     7.9670 O             1 RES     
    8430 Si          91.8900    86.6090     5.6030 Si            1 RES     
    8431 Si          58.3270    74.6850    10.8860 Si            1 RES     
    8432 Si          98.5580    87.0190     4.7550 Si            1 RES     
    8433 O           68.0280    74.1480     2.7820 O             1 RES     
    8434 O           88.2120    90.3700     3.1680 O             1 RES     
    8435 O           63.2290    68.9340     4.1960 O             1 RES     
    8436 O           51.5240    92.1600     5.3490 O             1 RES     
    8437 O           84.2080    91.4020     2.9950 O             1 RES     
    8438 O           59.9340    80.2440     7.3410 O             1 RES     
    8439 O           52.0630    65.5610     2.9380 O             1 RES     
    8440 Si          77.0240    78.3330     8.6310 Si            1 RES     
    8441 O           88.5380    90.3870    12.5310 O             1 RES     
    8442 O           85.8430    55.7330    11.5410 O             1 RES     
    8443 O           77.5350    52.5990     5.9240 O             1 RES     
    8444 Si          93.6470    56.3850     4.3100 Si            1 RES     
    8445 O           92.4490    95.0810     5.6010 O             1 RES     
    8446 O           88.6840    84.5900     7.1850 O             1 RES     
    8447 Si          93.7680    76.7680     6.7440 Si            1 RES     
    8448 O           97.2250    76.1170     2.2900 O             1 RES     
    8449 O           54.9090    67.5310    10.4690 O             1 RES     
    8450 O           78.7750    55.2600     1.7050 O             1 RES     
    8451 Si          81.4390    71.9590     5.0050 Si            1 RES     
    8452 Si          71.4930    60.7350     7.5580 Si            1 RES     
    8453 O           63.9710    56.4620     5.8890 O             1 RES     
    8454 O           83.0330    63.1450     8.0570 O             1 RES     
    8455 Si          84.9240    83.4730     4.7240 Si            1 RES     
    8456 OS          76.3210    82.7020    13.5690 OS            1 RES     
    8457 Si          81.5440    91.4570    12.4750 Si            1 RES     
    8458 O           79.3740    93.0310     2.4190 O             1 RES     
    8459 O           75.4890    63.7300    12.0520 O             1 RES     
    8460 Si          91.1940    75.4280     5.6740 Si            1 RES     
    8461 Si          75.0190    83.6200     4.5810 Si            1 RES     
    8462 O           75.8520    87.3180     4.9610 O             1 RES     
    8463 O           83.7020    53.5210     8.8710 O             1 RES     
    8464 Si          99.5320    86.2110     7.5480 Si            1 RES     
    8465 O           57.9020    62.8950     5.8120 O             1 RES     
    8466 Si          82.6620    71.5750    11.0900 Si            1 RES     
    8467 Si          91.8410    87.7970     9.8630 Si            1 RES     
    8468 O           74.8970    88.6820     9.4090 O             1 RES     
    8469 O           69.4320    80.9940     8.6450 O             1 RES     
    8470 O           73.0340    56.4600    10.7360 O             1 RES     
    8471 Si          56.1230    71.0220     6.0700 Si            1 RES     
    8472 O           76.2580    57.8970     4.8800 O             1 RES     
    8473 O           74.7020    77.8820     4.0000 O             1 RES     
    8474 O           56.7870    93.4910    11.0880 O             1 RES     
    8475 O           54.7200    76.2960     6.7230 O             1 RES     
    8476 O           87.7030    78.5370     7.3720 O             1 RES     
    8477 O           84.9560    83.9470    11.0150 O             1 RES     
    8478 O           64.4000    71.2030    10.7780 O             1 RES     
    8479 OS          67.2170    74.9120    13.6390 OS            1 RES     
    8480 O           54.4340    96.6510     3.6400 O             1 RES     
    8481 O           80.7400    91.4030     3.7310 O             1 RES     
    8482 O           54.3840    63.3880    11.0640 O             1 RES     
    8483 OS          72.1030    61.6210    13.7130 OS            1 RES     
    8484 Si          81.4340    97.1230     9.0250 Si            1 RES     
    8485 OS          86.8030    92.6740    12.0850 OS            1 RES     
    8486 Si          72.1270    85.1590     9.6950 Si            1 RES     
    8487 Si          54.3300    91.3140     8.1820 Si            1 RES     
    8488 O           90.7490    78.5730    10.2950 O             1 RES     
    8489 O           82.6930    90.5850     4.9870 O             1 RES     
    8490 O           81.9860    53.9110     4.1460 O             1 RES     
    8491 O           95.5510    59.8530     8.1410 O             1 RES     
    8492 Si          80.2600    76.5190     5.2240 Si            1 RES     
    8493 Si          80.8330    66.8930    12.4020 Si            1 RES     
    8494 Si          83.1600    78.3150     9.5480 Si            1 RES     
    8495 O           94.0770    97.9320    12.2840 O             1 RES     
    8496 O           97.5480    88.0060     5.6180 O             1 RES     
    8497 Si          87.6450    77.2860     8.3550 Si            1 RES     
    8498 OS          77.5640    74.5850    13.4620 OS            1 RES     
    8499 O           57.1940    74.1080     3.5390 O             1 RES     
    8500 Si          66.4750    50.4530     5.0370 Si            1 RES     
    8501 OS          69.0150    83.9640    12.9490 OS            1 RES     
    8502 Si          63.7360    96.8480     4.7960 Si            1 RES     
    8503 O           95.7160    53.1720     7.7260 O             1 RES     
    8504 O           97.2460    93.8840     6.4930 O             1 RES     
    8505 O           83.8920    57.0090    12.1530 O             1 RES     
    8506 Si          89.0750    55.0900     3.8950 Si            1 RES     
    8507 O           88.7150    61.9880     2.8450 O             1 RES     
    8508 O           67.3960    95.5620     7.7220 O             1 RES     
    8509 Si          75.4570    50.0150     8.9280 Si            1 RES     
    8510 O           76.8410    81.3830    11.3970 O             1 RES     
    8511 Si          56.6870    78.7520     8.6050 Si            1 RES     
    8512 O           72.9350    58.4130     3.4420 O             1 RES     
    8513 O           89.6580    73.4910     8.2180 O             1 RES     
    8514 O           90.5220    63.4140     7.5850 O             1 RES     
    8515 O           62.5910    90.7200     5.2870 O             1 RES     
    8516 OS          79.9960    71.1650    13.4540 OS            1 RES     
    8517 Si          91.0860    62.8460     6.2010 Si            1 RES     
    8518 Si          66.5360    92.3980     6.8450 Si            1 RES     
    8519 O           55.2850    79.5070     8.5800 O             1 RES     
    8520 Si          95.8050    76.2980     2.8180 Si            1 RES     
    8521 O           63.0470    96.5060     7.9250 O             1 RES     
    8522 O           50.7180    99.8240     8.9760 O             1 RES     
    8523 Si          61.1980    85.2150    10.2120 Si            1 RES     
    8524 O           66.1250    77.2630     7.1250 O             1 RES     
    8525 O           92.0090    58.9310     6.7160 O             1 RES     
    8526 O           79.4600    57.4260     7.0500 O             1 RES     
    8527 Si          74.4940    66.1220     5.1530 Si            1 RES     
    8528 O           64.2950    74.3120     4.4240 O             1 RES     
    8529 O           79.1570    82.0700     6.3030 O             1 RES     
    8530 O           66.2070    92.0650     2.8460 O             1 RES     
    8531 Si          59.1930    52.1070     6.1930 Si            1 RES     
    8532 O           72.3780    60.9030     3.1270 O             1 RES     
    8533 O           79.5450    77.8690     5.5900 O             1 RES     
    8534 Si          59.7130    85.8030     6.0890 Si            1 RES     
    8535 O           66.2530    89.6080     2.5560 O             1 RES     
    8536 O           86.1380    84.2730     4.0100 O             1 RES     
    8537 O           88.8820    92.7470     2.5550 O             1 RES     
    8538 O           91.4980    54.0980     6.5750 O             1 RES     
    8539 O           94.7810    91.7280     3.7870 O             1 RES     
    8540 Si          71.5530    87.3940     5.0980 Si            1 RES     
    8541 O           65.2540    96.7190     5.0130 O             1 RES     
    8542 Si          98.3050    58.8110     5.0710 Si            1 RES     
    8543 Si          69.3380    86.4260     9.9850 Si            1 RES     
    8544 O           97.7060    58.7760     8.5610 O             1 RES     
    8545 O           66.0610    56.3310     7.6540 O             1 RES     
    8546 O           98.3560    60.4680     2.3570 O             1 RES     
    8547 Si          57.5970    65.8860     3.3550 Si            1 RES     
    8548 Si          83.3320    92.4600    10.1280 Si            1 RES     
    8549 Si          96.0100    86.0040     3.3990 Si            1 RES     
    8550 O           96.9380    90.5590     4.9240 O             1 RES     
    8551 Si          64.4050    68.2450     4.9420 Si            1 RES     
    8552 O           96.1040    61.4080     5.6420 O             1 RES     
    8553 O           77.3830    58.8200     6.7370 O             1 RES     
    8554 O           81.8700    65.0560     3.2500 O             1 RES     
    8555 Si          65.9070    60.0890     6.7220 Si            1 RES     
    8556 O           60.8390    65.5770    10.8400 O             1 RES     
    8557 Si          53.8790    73.8550     9.3030 Si            1 RES     
    8558 O           60.9570    71.5610     8.4690 O             1 RES     
    8559 Si          57.0870    77.4220    11.3940 Si            1 RES     
    8560 O           92.1170    70.9600    11.0440 O             1 RES     
    8561 O           91.2090    56.6220     7.2350 O             1 RES     
    8562 Si          53.2300    66.7320     5.8630 Si            1 RES     
    8563 O           75.0490    91.8660     6.4780 O             1 RES     
    8564 Si          51.2730    94.7730    10.5840 Si            1 RES     
    8565 O           52.6120    96.4420     7.0790 O             1 RES     
    8566 O           63.6390    99.8840    10.2120 O             1 RES     
    8567 O           80.6700    84.1810     9.2810 O             1 RES     
    8568 Si          91.1270    92.6480     8.1450 Si            1 RES     
    8569 O           90.0150    56.7220    12.7820 O             1 RES     
    8570 OS          96.5220    64.8410    13.6800 OS            1 RES     
    8571 O           69.5030    87.4470    11.1780 O             1 RES     
    8572 O           90.1420    68.5980     7.4890 O             1 RES     
    8573 O           56.4810    95.2430    12.8770 O             1 RES     
    8574 O           53.6000    94.9390     4.7370 O             1 RES     
    8575 O           90.1310    82.9500    10.1810 O             1 RES     
    8576 Si          76.6890    66.7210     3.0580 Si            1 RES     
    8577 O           57.4210    83.3580     4.5400 O             1 RES     
    8578 O           97.3600    82.4420     2.6270 O             1 RES     
    8579 O           88.3920    95.2230     3.4960 O             1 RES     
    8580 O           52.3880    68.0540     6.4230 O             1 RES     
    8581 O           75.3700    86.4550     2.4690 O             1 RES     
    8582 O           83.4470    63.1420     3.1830 O             1 RES     
    8583 OS          74.0410    73.1650    13.5520 OS            1 RES     
    8584 O           86.7380    84.8560     9.1230 O             1 RES     
    8585 O           93.6660    85.3340     8.4330 O             1 RES     
    8586 O           89.8860    52.2040    10.2160 O             1 RES     
    8587 OS          99.6020    62.7850    13.2680 OS            1 RES     
    8588 O           83.9400    74.2910     2.7330 O             1 RES     
    8589 O           61.1720    68.9820     5.3790 O             1 RES     
    8590 O           64.0480    59.3350     3.0620 O             1 RES     
    8591 O           92.7380    84.8950     2.7400 O             1 RES     
    8592 O           95.4570    80.3800     2.5570 O             1 RES     
    8593 O           84.2480    85.0790     8.7640 O             1 RES     
    8594 O           64.3800    76.3200    10.8220 O             1 RES     
    8595 Si          55.3480    99.4170    12.7330 Si            1 RES     
    8596 O           84.2900    54.8140    13.7120 O             1 RES     
    8597 O           91.5300    61.3990     6.3670 O             1 RES     
    8598 O           96.0850    85.4200     1.9540 O             1 RES     
    8599 Si          61.4050    72.6560     4.4670 Si            1 RES     
    8600 Si          55.4440    96.3220    12.6150 Si            1 RES     
    8601 O           97.9650    53.8760     8.0230 O             1 RES     
    8602 O           72.6100    74.2770     9.1200 O             1 RES     
    8603 O           58.7410    53.2920     5.2770 O             1 RES     
    8604 O           93.1120    63.3500    10.8740 O             1 RES     
    8605 O           90.3440    98.4660     7.4730 O             1 RES     
    8606 OS          53.4810    54.3130    11.9250 OS            1 RES     
    8607 O           65.4450    87.0720    13.3770 O             1 RES     
    8608 O           80.5520    82.6320    11.0970 O             1 RES     
    8609 O           64.9040    63.0700     7.7000 O             1 RES     
    8610 Si          93.4640    84.5120     4.1050 Si            1 RES     
    8611 O           87.2750    91.3190     6.3480 O             1 RES     
    8612 O           66.5790    58.1120     3.7590 O             1 RES     
    8613 O           94.9030    67.5790     9.8250 O             1 RES     
    8614 O           92.4170    73.6620    11.1840 O             1 RES     
    8615 Si          61.8210    69.6120     4.0960 Si            1 RES     
    8616 O           54.2290    54.2180     9.5200 O             1 RES     
    8617 O           61.9240    53.5670     7.9060 O             1 RES     
    8618 Si          73.2640    78.3340     4.5650 Si            1 RES     
    8619 Si          60.6550    65.6260     6.9070 Si            1 RES     
    8620 Si          66.6240    97.4700     4.8540 Si            1 RES     
    8621 O           92.4230    93.5150    11.6360 O             1 RES     
    8622 O           94.6300    63.0840     4.7050 O             1 RES     
    8623 O           74.8870    73.7760     8.7800 O             1 RES     
    8624 Si          94.1340    64.4970    10.5390 Si            1 RES     
    8625 O           51.7890    61.3740     9.7400 O             1 RES     
    8626 Si          86.3550    98.1240     7.1680 Si            1 RES     
    8627 O           60.2310    99.0210     4.5630 O             1 RES     
    8628 O           78.3610    74.1750     9.0730 O             1 RES     
    8629 O           70.6590    93.6390     4.2780 O             1 RES     
    8630 Si          69.3750    91.1540     7.3020 Si            1 RES     
    8631 O           80.9560    61.5940     8.6360 O             1 RES     
    8632 OS          68.8340    59.1030    13.2000 OS            1 RES     
    8633 OS          68.5960    67.9340    13.0090 OS            1 RES     
    8634 O           96.4730    51.5150     3.5410 O             1 RES     
    8635 O           62.2390    75.8070     3.0760 O             1 RES     
    8636 O           84.3740    71.7230     2.4900 O             1 RES     
    8637 O           57.1170    99.6020     8.2970 O             1 RES     
    8638 O           57.2630    90.2660     5.4760 O             1 RES     
    8639 Si          55.9150    89.6130     6.0160 Si            1 RES     
    8640 O           53.6420    98.2090     1.7190 O             1 RES     
    8641 Si          59.3260    80.2780     8.7720 Si            1 RES     
    8642 O           71.8550    62.2470     7.6560 O             1 RES     
    8643 Si          82.0220    95.5090     3.4310 Si            1 RES     
    8644 Si          76.3280    86.2830     3.8650 Si            1 RES     
    8645 Si          79.2960    99.2110     4.6370 Si            1 RES     
    8646 Si          59.8470    99.8200    11.0250 Si            1 RES     
    8647 O           73.2350    87.5940     5.5630 O             1 RES     
    8648 O           54.4610    54.4630     6.6550 O             1 RES     
    8649 O           87.6840    54.5540     4.2990 O             1 RES     
    8650 O           58.1540    93.7040     6.2390 O             1 RES     
    8651 O           66.5850    53.8740     7.1990 O             1 RES     
    8652 Si          93.4070    64.0150     4.5790 Si            1 RES     
    8653 O           79.2980    88.8270     7.6790 O             1 RES     
    8654 O           79.3870    71.7350     9.2020 O             1 RES     
    8655 Si          69.1950    99.8120     3.6240 Si            1 RES     
    8656 O           88.6720    88.0910    11.0390 O             1 RES     
    8657 Si          87.7770    85.5230     8.0530 Si            1 RES     
    8658 O           50.8420    73.7000    11.6950 O             1 RES     
    8659 Si          95.3090    96.5390     8.6930 Si            1 RES     
    8660 O           90.1670    82.8790     5.9980 O             1 RES     
    8661 O           99.4920    62.2080     4.3130 O             1 RES     
    8662 Si          93.2470    68.1450     6.8110 Si            1 RES     
    8663 O           51.2610    95.9670     4.7330 O             1 RES     
    8664 O           70.5560    56.5140    11.2540 O             1 RES     
    8665 Si          96.4700    71.9070     5.5860 Si            1 RES     
    8666 O           83.7270    54.7470    11.2180 O             1 RES     
    8667 O           98.7680    89.6940    10.5490 O             1 RES     
    8668 Si          53.4020    51.0840     6.7640 Si            1 RES     
    8669 O           71.3330    51.8710    11.3530 O             1 RES     
    8670 O           85.5060    61.1090     6.4490 O             1 RES     
    8671 O           76.7580    54.1720     8.6430 O             1 RES     
    8672 O           94.5140    78.1680    12.7980 O             1 RES     
    8673 O           87.1250    54.6340     6.7400 O             1 RES     
    8674 Si          92.0090    58.7670     3.2600 Si            1 RES     
    8675 Si          96.1000    62.5440     4.5270 Si            1 RES     
    8676 OS          99.5030    90.8540    12.6370 OS            1 RES     
    8677 O           61.7300    61.3630    10.8470 O             1 RES     
    8678 Si          60.5060    53.9990     8.3070 Si            1 RES     
    8679 O           76.4340    92.8610    11.3620 O             1 RES     
    8680 OS          60.2690    70.2770    12.7150 OS            1 RES     
    8681 O           54.0880    56.5780     5.0410 O             1 RES     
    8682 Si          54.7960    95.1350     3.8250 Si            1 RES     
    8683 Si          67.2500    86.7620     5.3500 Si            1 RES     
    8684 O           72.6580    85.0170     8.1920 O             1 RES     
    8685 O           54.7760    61.3850     3.7570 O             1 RES     
    8686 Si          52.1730    80.1660    10.6390 Si            1 RES     
    8687 O           79.6660    59.5910    12.2180 O             1 RES     
    8688 O           53.1690    61.5260     1.8630 O             1 RES     
    8689 Si          51.5830    69.4170     6.7290 Si            1 RES     
    8690 Si          54.1910    80.4610     4.9740 Si            1 RES     
    8691 O           68.7420    69.2920     3.6040 O             1 RES     
    8692 OS          79.6860    94.8840    11.6080 OS            1 RES     
    8693 Si          71.1900    92.2330     4.8640 Si            1 RES     
    8694 O           80.7800    70.5740     4.9990 O             1 RES     
    8695 O           69.1700    69.3410     6.1340 O             1 RES     
    8696 Si          71.9210    55.8130    11.6850 Si            1 RES     
    8697 O           80.8090    66.9810     1.4340 O             1 RES     
    8698 O           69.2280    84.6030     2.8800 O             1 RES     
    8699 Si          54.1090    55.0000     5.1770 Si            1 RES     
    8700 O           56.3600    68.8940     8.8740 O             1 RES     
    8701 O           56.2940    50.6990     3.4020 O             1 RES     
    8702 O           65.1280    53.2530    11.2180 O             1 RES     
    8703 Si          74.5940    66.9940    10.8350 Si            1 RES     
    8704 Si          62.2190    97.6710     7.2280 Si            1 RES     
    8705 O           87.6340    93.1750     4.6860 O             1 RES     
    8706 OS          90.8040    59.0420    13.7160 OS            1 RES     
    8707 Si          77.3070    95.2360     8.2250 Si            1 RES     
    8708 O           83.9980    72.9060     7.6760 O             1 RES     
    8709 O           95.1190    87.2770     3.0810 O             1 RES     
    8710 O           56.8140    97.4990     9.5180 O             1 RES     
    8711 O           64.2680    93.1000     4.5660 O             1 RES     
    8712 O           91.9410    88.7310    11.1050 O             1 RES     
    8713 O           55.3760    90.2880     7.4140 O             1 RES     
    8714 O           90.1690    93.8500     4.6990 O             1 RES     
    8715 O           77.7100    90.7150     6.5120 O             1 RES     
    8716 O           90.9140    91.0570     8.2180 O             1 RES     
    8717 O           80.0460    90.2740     5.7160 O             1 RES     
    8718 O           67.3190    97.0070     3.5200 O             1 RES     
    8719 Si          82.9580    54.0070    10.1090 Si            1 RES     
    8720 Si          84.8320    84.0840    12.5900 Si            1 RES     
    8721 OS          57.6280    93.2180    13.5850 OS            1 RES     
    8722 Si          97.7210    76.6370     7.6180 Si            1 RES     
    8723 O           80.9160    76.5840     3.7620 O             1 RES     
    8724 O           73.9220    92.3280    12.3240 O             1 RES     
    8725 OS          75.8880    90.5100    13.6960 OS            1 RES     
    8726 O           86.9150    65.8830     8.6820 O             1 RES     
    8727 O           71.1230    97.8380     9.4230 O             1 RES     
    8728 O           94.2260    51.4090     2.5910 O             1 RES     
    8729 O           71.3940    74.2170     4.6260 O             1 RES     
    8730 OS          88.1040    75.3190    12.6240 OS            1 RES     
    8731 Si          82.5640    61.8050     8.6730 Si            1 RES     
    8732 O           83.7820    68.0900     7.4940 O             1 RES     
    8733 OS          59.2800    89.5730    11.9060 OS            1 RES     
    8734 O           51.9720    51.2120     6.1930 O             1 RES     
    8735 O           96.1200    97.9080     8.9550 O             1 RES     
    8736 O           65.0400    95.0910     8.8960 O             1 RES     
    8737 O           55.1570    83.7200     3.2020 O             1 RES     
    8738 Si          93.0790    97.3120    11.1950 Si            1 RES     
    8739 O           59.7870    91.1050     4.7360 O             1 RES     
    8740 O           56.1870    60.7460     5.5900 O             1 RES     
    8741 O           84.0590    99.7060     8.3830 O             1 RES     
    8742 O           96.9490    92.9200     4.2110 O             1 RES     
    8743 O           90.5380    89.4770     3.5280 O             1 RES     
    8744 O           75.0980    98.5330     8.5770 O             1 RES     
    8745 Si          83.8420    95.4100     9.7360 Si            1 RES     
    8746 O           51.0700    79.6330     2.7850 O             1 RES     
    8747 O           81.7480    96.3360     4.7500 O             1 RES     
    8748 O           96.7180    93.3970    11.7750 O             1 RES     
    8749 O           95.9950    75.4950     4.1030 O             1 RES     
    8750 Si          74.4620    70.2280     4.2260 Si            1 RES     
    8751 O           51.2180    90.0580    10.7650 O             1 RES     
    8752 O           99.7400    69.9800    10.4620 O             1 RES     
    8753 O           86.5850    57.6310    10.1330 O             1 RES     
    8754 O           82.3760    99.8430     3.1810 O             1 RES     
    8755 OS          79.5430    99.3210    12.4220 OS            1 RES     
    8756 Si          88.2170    98.4220    11.3390 Si            1 RES     
    8757 O           77.3500    86.5040    12.2680 O             1 RES     
    8758 O           71.5430    81.5880     9.9880 O             1 RES     
    8759 O           84.2360    77.1980    10.1070 O             1 RES     
    8760 Si          78.9930    55.7800     3.1930 Si            1 RES     
    8761 O           66.7080    62.7920     9.7260 O             1 RES     
    8762 OS          58.3120    78.2320    12.0050 OS            1 RES     
    8763 Si          67.5100    75.8340    12.3960 Si            1 RES     
    8764 O           63.1120    95.4360     5.0930 O             1 RES     
    8765 O           58.6580    88.8890     7.8230 O             1 RES     
    8766 O           75.4570    80.2240     5.8030 O             1 RES     
    8767 OS          65.4610    80.9980    12.0200 OS            1 RES     
    8768 OS          70.9830    67.0100    12.4260 OS            1 RES     
    8769 O           52.5790    73.0990     5.9300 O             1 RES     
    8770 Si          73.6140    70.2550     7.2040 Si            1 RES     
    8771 O           62.8580    78.5260    10.3000 O             1 RES     
    8772 Si          99.4750    81.2930     5.8120 Si            1 RES     
    8773 OS          80.2560    57.0160    13.1400 OS            1 RES     
    8774 O           51.0510    92.4950     2.7780 O             1 RES     
    8775 O           97.2880    89.8280     7.4040 O             1 RES     
    8776 Si          68.5590    96.0310     6.8330 Si            1 RES     
    8777 Si          84.5940    62.1700     2.8700 Si            1 RES     
    8778 Si          72.8780    82.3050    10.6540 Si            1 RES     
    8779 O           90.5280    65.8970     7.9670 O             1 RES     
    8780 O           99.8640    71.4210    12.6100 O             1 RES     
    8781 Si          92.2390    53.0160     7.4680 Si            1 RES     
    8782 OS          53.7080    82.8340    13.4430 OS            1 RES     
    8783 O           99.6160    66.5430    11.2260 O             1 RES     
    8784 Si          77.6710    75.6370    12.2540 Si            1 RES     
    8785 O           59.4760    75.8230     3.2250 O             1 RES     
    8786 OS          66.1200    68.1080    12.2320 OS            1 RES     
    8787 Si          52.5000    86.8800     8.8330 Si            1 RES     
    8788 O           60.4580    69.5140    10.2270 O             1 RES     
    8789 O           81.5910    50.4320    11.3760 O             1 RES     
    8790 O           56.2520    53.0190     2.5250 O             1 RES     
    8791 O           73.7620    70.4510     5.6460 O             1 RES     
    8792 O           56.4440    78.1370     2.6900 O             1 RES     
    8793 Si          82.9600    66.8100     7.8490 Si            1 RES     
    8794 O           95.8420    62.2230     2.9200 O             1 RES     
    8795 Si          82.2490    84.8590     5.3880 Si            1 RES     
    8796 O           93.5730    69.3770     5.9410 O             1 RES     
    8797 O           91.4800    61.2340    10.4330 O             1 RES     
    8798 O           77.1300    69.9590    11.9050 O             1 RES     
    8799 O           93.1120    59.0960     2.1700 O             1 RES     
    8800 O           65.5340    75.4820     8.9350 O             1 RES     
    8801 O           78.6790    73.3450     2.1370 O             1 RES     
    8802 O           94.5210    67.3100     6.5560 O             1 RES     
    8803 O           63.6740    94.1950     7.0730 O             1 RES     
    8804 OS          64.3730    64.0060    12.1490 OS            1 RES     
    8805 O           65.2320    74.6720     6.5390 O             1 RES     
    8806 O           60.0290    55.5380     8.3100 O             1 RES     
    8807 Si          75.5300    72.6310     7.8570 Si            1 RES     
    8808 O           52.1790    97.9090     3.7720 O             1 RES     
    8809 Si          78.9950    73.7520     5.4270 Si            1 RES     
    8810 Si          53.1650    60.6790    10.1300 Si            1 RES     
    8811 O           66.2890    78.8230     5.1010 O             1 RES     
    8812 O           67.3520    82.1840     7.5460 O             1 RES     
    8813 O           84.8070    89.4040     4.0380 O             1 RES     
    8814 Si          86.5260    92.5080     5.6500 Si            1 RES     
    8815 O           69.9540    56.7290     6.2850 O             1 RES     
    8816 OS          54.6190    62.9200    13.5930 OS            1 RES     
    8817 O           52.3390    54.1420     7.6210 O             1 RES     
    8818 O           91.9660    80.8780     9.8350 O             1 RES     
    8819 Si          85.8660    99.2400     2.9200 Si            1 RES     
    8820 O           58.7220    68.7280     5.6150 O             1 RES     
    8821 OS          64.6250    53.0450    13.8430 OS            1 RES     
    8822 Si          85.9630    87.4350     6.4760 Si            1 RES     
    8823 Si          55.4570    65.2780     7.5350 Si            1 RES     
    8824 OS          77.9400    64.5790    12.6080 OS            1 RES     
    8825 Si          93.3240    91.8310     3.2860 Si            1 RES     
    8826 Si          93.4030    96.2690     6.1900 Si            1 RES     
    8827 Si          79.6460    61.3040     7.7860 Si            1 RES     
    8828 O           86.5260    64.3320    10.5830 O             1 RES     
    8829 O           86.0060    93.7990     6.4990 O             1 RES     
    8830 Si          58.0120    64.4310     6.0600 Si            1 RES     
    8831 O           88.2490    68.3300     8.8490 O             1 RES     
    8832 O           93.7310    69.8350     3.3930 O             1 RES     
    8833 O           77.6680    85.9060     3.0870 O             1 RES     
    8834 O           50.4900    93.5340    10.0180 O             1 RES     
    8835 O           63.6420    85.4190     6.9260 O             1 RES     
    8836 Si          62.9910    77.1330    10.9580 Si            1 RES     
    8837 Si          73.8630    95.8620    11.9930 Si            1 RES     
    8838 O           72.2970    98.3590     5.3120 O             1 RES     
    8839 Si          75.9610    55.2320     7.8690 Si            1 RES     
    8840 O           74.2940    51.8930     2.7680 O             1 RES     
    8841 O           66.4760    87.7040     4.3180 O             1 RES     
    8842 O           88.9960    56.4630     3.1540 O             1 RES     
    8843 Si          60.7150    81.6810    12.0640 Si            1 RES     
    8844 O           84.5510    85.6090    12.8760 O             1 RES     
    8845 Si          90.2900    67.2020     6.6710 Si            1 RES     
    8846 O           50.1750    67.8730     2.5890 O             1 RES     
    8847 O           75.4540    66.6890     4.0590 O             1 RES     
    8848 O           71.2320    91.1290     3.7910 O             1 RES     
    8849 O           97.9910    70.1320     7.5240 O             1 RES     
    8850 O           78.9260    51.4310     7.6320 O             1 RES     
    8851 Si          74.1400    56.9550     9.6920 Si            1 RES     
    8852 Si          60.0460    95.8610    12.3140 Si            1 RES     
    8853 O           69.5920    96.6460     7.8140 O             1 RES     
    8854 O           99.2820    63.9790     6.4470 O             1 RES     
    8855 Si          82.7610    80.8370     8.0090 Si            1 RES     
    8856 OS          86.0280    69.1090    11.6440 OS            1 RES     
    8857 O           75.9280    86.2850     9.9660 O             1 RES     
    8858 OS          66.9410    51.5030    13.9450 OS            1 RES     
    8859 Si          58.0890    59.1650     3.4690 Si            1 RES     
    8860 O           57.4840    93.0870     8.6110 O             1 RES     
    8861 O           51.1320    77.7500     4.4110 O             1 RES     
    8862 Si          91.8280    98.1740     7.9800 Si            1 RES     
    8863 Si          88.2600    59.3290     6.6120 Si            1 RES     
    8864 O           90.4440    95.0910    11.7210 O             1 RES     
    8865 O           72.1720    78.9880    12.0870 O             1 RES     
    8866 O           72.5850    92.3680     5.5940 O             1 RES     
    8867 OS          56.3640    50.9860    13.3560 OS            1 RES     
    8868 O           71.1010    68.6210     4.3820 O             1 RES     
    8869 O           78.6020    75.5380    10.9880 O             1 RES     
    8870 Si          95.1290    66.0420     5.8950 Si            1 RES     
    8871 OS          98.0560    95.4530    12.2910 OS            1 RES     
    8872 O           64.1680    74.4350     1.8690 O             1 RES     
    8873 O           63.8490    63.9900     5.4690 O             1 RES     
    8874 Si          91.6930    72.5180     5.2840 Si            1 RES     
    8875 O           57.7250    60.1780     9.7690 O             1 RES     
    8876 O           65.1780    91.4640     6.7210 O             1 RES     
    8877 O           50.5540    74.3760     6.7230 O             1 RES     
    8878 Si          88.2510    89.6490    11.1770 Si            1 RES     
    8879 O           63.2470    54.9020     3.6700 O             1 RES     
    8880 O           87.0490    58.3670     5.3170 O             1 RES     
    8881 O           68.5340    59.5700     4.7320 O             1 RES     
    8882 O           78.1010    57.5450     8.9600 O             1 RES     
    8883 O           54.4450    99.1510     3.9220 O             1 RES     
    8884 Si          84.1500    50.2340     6.9910 Si            1 RES     
    8885 O           78.9690    50.5530     5.4100 O             1 RES     
    8886 O           75.2910    95.2430    11.4690 O             1 RES     
    8887 OS          98.5810    50.0460    12.8100 OS            1 RES     
    8888 O           59.1010    91.7060     7.7430 O             1 RES     
    8889 OS          98.7460    66.5420    13.5350 OS            1 RES     
    8890 O           52.8580    81.2520    11.5010 O             1 RES     
    8891 O           78.9490    82.9340     4.0500 O             1 RES     
    8892 Si          96.1820    63.6870    12.6920 Si            1 RES     
    8893 O           72.4060    77.0210     4.5720 O             1 RES     
    8894 O           82.4200    72.4380     3.8130 O             1 RES     
    8895 Si          69.3320    87.9810     7.2560 Si            1 RES     
    8896 OS          63.0730    83.9140    13.3170 OS            1 RES     
    8897 OS          51.1850    99.5760    12.8470 OS            1 RES     
    8898 Si          73.2730    86.9670    11.8210 Si            1 RES     
    8899 O           75.0460    87.2640     7.3890 O             1 RES     
    8900 O           64.9480    69.2350     6.0250 O             1 RES     
    8901 O           70.8760    80.5270     2.4170 O             1 RES     
    8902 Si          97.2880    98.5670     9.7450 Si            1 RES     
    8903 Si          89.1580    55.4970    12.3780 Si            1 RES     
    8904 O           56.1050    85.7080     4.4190 O             1 RES     
    8905 OS          86.5980    52.3970    12.3880 OS            1 RES     
    8906 Si          65.4760    70.6070     6.7620 Si            1 RES     
    8907 O           64.5900    83.3570    11.3350 O             1 RES     
    8908 Si          67.0470    50.9500    12.4370 Si            1 RES     
    8909 O           52.3170    57.2640     8.3850 O             1 RES     
    8910 O           59.0200    86.3940     7.3610 O             1 RES     
    8911 OS          50.4130    86.1710    11.9020 OS            1 RES     
    8912 O           57.3160    67.2230    10.7510 O             1 RES     
    8913 O           98.3180    99.4250     8.8890 O             1 RES     
    8914 Si          96.3050    57.2390    11.5810 Si            1 RES     
    8915 Si          50.9870    72.4530    12.7220 Si            1 RES     
    8916 O           76.4740    66.1000     1.6920 O             1 RES     
    8917 OS          58.1300    53.5870    11.1090 OS            1 RES     
    8918 O           93.5260    55.4500    13.6310 O             1 RES     
    8919 O           62.0960    59.1050     6.9030 O             1 RES     
    8920 Si          84.7290    69.2200    10.7460 Si            1 RES     
    8921 O           59.8690    86.6850     4.6570 O             1 RES     
    8922 O           91.9290    67.3280     6.3350 O             1 RES     
    8923 O           59.4350    96.6280     4.5100 O             1 RES     
    8924 O           90.4240    58.4670     2.8820 O             1 RES     
    8925 Si          76.2590    57.5200    11.9100 Si            1 RES     
    8926 O           82.8230    96.4750     9.3520 O             1 RES     
    8927 Si          56.6160    72.6860     3.5980 Si            1 RES     
    8928 O           77.6590    76.8770     8.9330 O             1 RES     
    8929 Si          65.6720    93.1520     3.8470 Si            1 RES     
    8930 O           94.8030    75.8370     6.1180 O             1 RES     
    8931 O           62.3800    50.3960     4.1410 O             1 RES     
    8932 O           89.3280   124.2340     3.1580 O             1 RES     
    8933 O           58.4580   148.5390     6.1960 O             1 RES     
    8934 O           59.9370   134.3450     9.7080 O             1 RES     
    8935 O           77.9310   120.9500     2.9650 O             1 RES     
    8936 Si          84.0510   121.9090     6.4800 Si            1 RES     
    8937 O           81.4160   117.1410     7.9150 O             1 RES     
    8938 O           57.4230   125.4710     6.7820 O             1 RES     
    8939 O           97.1120   103.1090     5.5400 O             1 RES     
    8940 O           82.8980   107.8050     9.9470 O             1 RES     
    8941 Si          88.7810   111.9610     4.5220 Si            1 RES     
    8942 O           75.3700   101.5880    12.7280 O             1 RES     
    8943 O           78.2200   107.4620    11.4690 O             1 RES     
    8944 O           91.5420   122.2820     9.1930 O             1 RES     
    8945 O           81.7550   101.9730    13.4760 O             1 RES     
    8946 Si          51.2140   126.3900     3.6200 Si            1 RES     
    8947 O           82.1660   142.1050     9.0280 O             1 RES     
    8948 O           76.2930   146.3710     7.6460 O             1 RES     
    8949 O           67.5360   125.3840     7.5700 O             1 RES     
    8950 OS          95.4190   133.1370    12.1080 OS            1 RES     
    8951 Si          87.4340   104.1390     8.1680 Si            1 RES     
    8952 O           85.4360   132.8570     8.7280 O             1 RES     
    8953 O           73.7070   124.5910     4.9950 O             1 RES     
    8954 O           59.6650   131.9680     5.7910 O             1 RES     
    8955 Si          95.4860   122.8860    10.2000 Si            1 RES     
    8956 Si          69.9930   118.2280    12.3350 Si            1 RES     
    8957 O           74.5250   130.7410     7.9630 O             1 RES     
    8958 O           82.6640   141.9310    11.4990 O             1 RES     
    8959 O           56.5590   127.3500     5.0100 O             1 RES     
    8960 Si          58.9520   133.0600     4.9870 Si            1 RES     
    8961 O           90.1130   125.9410     9.7650 O             1 RES     
    8962 O           70.6210   137.5380     6.4480 O             1 RES     
    8963 Si          74.6920   129.4830     6.9840 Si            1 RES     
    8964 Si          69.3940   115.7420     5.6330 Si            1 RES     
    8965 O           79.8760   111.7970     6.2890 O             1 RES     
    8966 O           87.9360   130.6050     3.1040 O             1 RES     
    8967 O           99.3000   143.1650     4.7740 O             1 RES     
    8968 O           99.2410   115.4300     8.7790 O             1 RES     
    8969 Si          66.0040   125.6960     7.5250 Si            1 RES     
    8970 O           60.2360   103.4110     9.6970 O             1 RES     
    8971 O           93.4210   128.2730     6.3950 O             1 RES     
    8972 O           50.1870   140.6520     3.9740 O             1 RES     
    8973 O           61.9330   136.8760     3.0060 O             1 RES     
    8974 Si          93.8870   100.3740     7.3530 Si            1 RES     
    8975 O           73.3580   112.3080    11.7210 O             1 RES     
    8976 Si          75.3870   141.5760    12.4880 Si            1 RES     
    8977 O           96.0860   121.2950     7.0170 O             1 RES     
    8978 O           71.7340   106.6160     4.3500 O             1 RES     
    8979 O           73.6280   138.4180    11.4120 O             1 RES     
    8980 O           98.4240   130.3200     6.4430 O             1 RES     
    8981 O           64.8410   123.7240    11.1040 O             1 RES     
    8982 O           63.8720   107.7270     8.0010 O             1 RES     
    8983 O           92.9320   135.6550     5.0210 O             1 RES     
    8984 Si          64.9580   122.2990    11.7660 Si            1 RES     
    8985 Si          51.3660   123.9370     5.4410 Si            1 RES     
    8986 OS          67.8410   137.7820    13.0870 OS            1 RES     
    8987 O           52.1070   145.4170     9.4240 O             1 RES     
    8988 Si          73.7100   128.9220    12.3920 Si            1 RES     
    8989 O           88.9530   135.4330    11.0830 O             1 RES     
    8990 O           68.9750   137.1960     8.6150 O             1 RES     
    8991 O           70.4090   149.8920     4.6600 O             1 RES     
    8992 OS          95.0010   136.9310    13.7540 OS            1 RES     
    8993 O           96.3590   138.6730     9.4100 O             1 RES     
    8994 Si          80.3630   142.9570     3.6210 Si            1 RES     
    8995 Si          97.8950   143.8810     5.0840 Si            1 RES     
    8996 O           71.7380   145.4450     8.6830 O             1 RES     
    8997 O           79.7260   134.7920    11.3840 O             1 RES     
    8998 O           78.0750   105.0820    10.5820 O             1 RES     
    8999 Si          74.9300   147.1050     7.6980 Si            1 RES     
    9000 O           99.2420   147.3080     4.1190 O             1 RES     
    9001 O           80.4550   107.1310    10.0400 O             1 RES     
    9002 Si          73.1700   107.2460     4.4180 Si            1 RES     
    9003 O           72.6910   140.0080     9.8390 O             1 RES     
    9004 O           59.2430   134.4260     5.6130 O             1 RES     
    9005 Si          85.9510   145.0840     7.4200 Si            1 RES     
    9006 O           63.0020   114.6690    10.0680 O             1 RES     
    9007 Si          72.3030   118.2180     3.4300 Si            1 RES     
    9008 O           88.6920   144.6600     9.9650 O             1 RES     
    9009 Si          55.3750   136.6310     5.4460 Si            1 RES     
    9010 O           81.6610   106.9240     7.6810 O             1 RES     
    9011 OS          52.1040   144.4950    11.9170 OS            1 RES     
    9012 O           60.2660   103.2190    12.0870 O             1 RES     
    9013 O           83.2710   137.6820     4.3090 O             1 RES     
    9014 OS          52.5230   137.1640    12.4500 OS            1 RES     
    9015 O           84.7990   141.8550    10.2240 O             1 RES     
    9016 Si          70.4020   145.1770     4.5950 Si            1 RES     
    9017 Si          80.0820   117.9670     7.9450 Si            1 RES     
    9018 O           80.5780   143.3520     7.2540 O             1 RES     
    9019 O           69.3900   132.4830    10.8440 O             1 RES     
    9020 O           88.7970   147.0110    10.9690 O             1 RES     
    9021 Si          89.4990   119.3740     8.7080 Si            1 RES     
    9022 O           92.9490   138.5760     2.4350 O             1 RES     
    9023 Si          53.8240   129.5800     7.9930 Si            1 RES     
    9024 O           76.1210   108.9700    12.5670 O             1 RES     
    9025 O           87.3440   108.4030     7.9400 O             1 RES     
    9026 O           65.1020   137.0500     8.0510 O             1 RES     
    9027 O           59.6790   103.5510     2.8980 O             1 RES     
    9028 O           81.5790   143.9430     3.5960 O             1 RES     
    9029 Si          85.8900   112.3490     5.6510 Si            1 RES     
    9030 O           54.2640   109.0260     4.7800 O             1 RES     
    9031 O           94.0270   115.3980     4.9560 O             1 RES     
    9032 OS          88.3090   133.0360    11.9640 OS            1 RES     
    9033 Si          82.8510   129.5180    12.2650 Si            1 RES     
    9034 O           72.9350   141.4540     7.9210 O             1 RES     
    9035 O           80.0370   149.7050     3.3810 O             1 RES     
    9036 Si          53.5000   138.7530     4.4320 Si            1 RES     
    9037 O           88.2010   110.6540     7.5920 O             1 RES     
    9038 O           59.7210   144.1600     8.4230 O             1 RES     
    9039 O           88.4650   125.9060     8.1340 O             1 RES     
    9040 O           56.0940   116.2190     8.6880 O             1 RES     
    9041 O           91.3560   136.3370    10.0850 O             1 RES     
    9042 Si          65.1630   135.7140     7.3010 Si            1 RES     
    9043 O           57.6490   116.0520    13.1470 O             1 RES     
    9044 O           81.1850   107.8320     5.0870 O             1 RES     
    9045 O           74.1550   146.1000     8.5750 O             1 RES     
    9046 O           58.2810   106.0230    12.1260 O             1 RES     
    9047 O           95.3310   124.4320     9.8760 O             1 RES     
    9048 Si          75.6960   137.4590     8.8510 Si            1 RES     
    9049 O           52.2070   113.1450    12.8520 O             1 RES     
    9050 O           99.6470   115.8970     1.3740 O             1 RES     
    9051 Si          65.9380   132.7240     8.1010 Si            1 RES     
    9052 Si          57.5200   144.1720    12.3700 Si            1 RES     
    9053 O           80.4440   123.0700     5.2210 O             1 RES     
    9054 O           96.7050   147.7370     5.0130 O             1 RES     
    9055 O           61.4490   107.4630     8.7760 O             1 RES     
    9056 Si          73.7950   101.6760     6.8390 Si            1 RES     
    9057 O           52.8600   130.0720     9.2260 O             1 RES     
    9058 Si          71.9800   130.9280     3.3940 Si            1 RES     
    9059 O           74.3500   118.9630     7.6670 O             1 RES     
    9060 Si          72.5320   125.0840     4.1390 Si            1 RES     
    9061 O           53.2820   109.1310    10.0050 O             1 RES     
    9062 Si          68.5560   133.6670    11.4620 Si            1 RES     
    9063 O           89.1110   121.6780     2.3750 O             1 RES     
    9064 O           67.6690   129.6720     7.1160 O             1 RES     
    9065 Si          70.2150   106.4960     4.7090 Si            1 RES     
    9066 Si          76.0590   140.8180     5.8490 Si            1 RES     
    9067 O           78.9650   138.7850    10.2090 O             1 RES     
    9068 O           90.1500   116.6990     2.3940 O             1 RES     
    9069 Si          99.4280   100.5340     8.6050 Si            1 RES     
    9070 O           54.7720   121.7590     6.4550 O             1 RES     
    9071 O           74.2530   133.2980     7.8670 O             1 RES     
    9072 Si          60.7020   130.7490     6.1000 Si            1 RES     
    9073 O           92.6700   105.6730     5.2900 O             1 RES     
    9074 Si          64.2700   149.9640    11.6860 Si            1 RES     
    9075 O           56.6100   121.1300    10.0300 O             1 RES     
    9076 O           99.4510   111.8250    10.8060 O             1 RES     
    9077 O           91.1260   113.8420     9.8870 O             1 RES     
    9078 O           95.6810   115.0260     7.0230 O             1 RES     
    9079 O           96.7460   126.3010     8.8480 O             1 RES     
    9080 O           77.8520   130.1570     5.1630 O             1 RES     
    9081 O           64.0080   116.7380     5.3380 O             1 RES     
    9082 O           77.0560   141.8310     1.9940 O             1 RES     
    9083 Si          63.3490   124.6240     3.2190 Si            1 RES     
    9084 O           75.9020   134.8710     4.4290 O             1 RES     
    9085 O           70.1230   104.8830     4.5910 O             1 RES     
    9086 O           84.1470   115.1210    11.3000 O             1 RES     
    9087 Si          51.3730   122.1510     2.9220 Si            1 RES     
    9088 O           99.7900   125.9860     3.1710 O             1 RES     
    9089 O           82.2150   127.3290     8.7490 O             1 RES     
    9090 O           92.4190   113.5680     5.7240 O             1 RES     
    9091 O           87.2140   105.2770     9.2580 O             1 RES     
    9092 O           90.9980   123.4960     1.5910 O             1 RES     
    9093 OS          50.6460   127.9250    13.3760 OS            1 RES     
    9094 Si          50.8110   119.1590     9.6580 Si            1 RES     
    9095 O           80.5330   118.1760     4.0030 O             1 RES     
    9096 O           91.9850   133.4010     8.8860 O             1 RES     
    9097 OS          56.9590   138.8170    12.1150 OS            1 RES     
    9098 O           73.5630   128.8290     6.0310 O             1 RES     
    9099 Si          86.8960   106.1620    10.4730 Si            1 RES     
    9100 OS          80.9060   142.8970    12.8760 OS            1 RES     
    9101 O           72.3450   133.7720    10.4280 O             1 RES     
    9102 Si          88.7720   149.4470     3.8340 Si            1 RES     
    9103 Si          70.6320   128.6790    11.6590 Si            1 RES     
    9104 O           79.1060   109.9070     8.0490 O             1 RES     
    9105 O           54.3300   116.1090     6.8260 O             1 RES     
    9106 Si          96.1970   108.4660     8.6420 Si            1 RES     
    9107 O           81.4770   120.9200    10.3250 O             1 RES     
    9108 O           73.6740   113.7090     7.1970 O             1 RES     
    9109 O           75.7850   116.0530    11.2930 O             1 RES     
    9110 Si          75.0720   102.0650    11.2810 Si            1 RES     
    9111 O           56.5130   112.3630    10.0980 O             1 RES     
    9112 O           81.2430   126.1310     6.4910 O             1 RES     
    9113 O           79.5560   143.4330     4.9100 O             1 RES     
    9114 O           55.5290   129.6980     4.5780 O             1 RES     
    9115 Si          62.1290   129.9390     9.9840 Si            1 RES     
    9116 Si          92.9810   142.5610    10.5600 Si            1 RES     
    9117 O           50.0220   114.5270     4.1100 O             1 RES     
    9118 O           77.5270   106.1070     3.8020 O             1 RES     
    9119 OS          62.7250   103.7090    12.4850 OS            1 RES     
    9120 Si          59.4180   102.8310    10.8570 Si            1 RES     
    9121 O           81.6600   136.1520    10.5500 O             1 RES     
    9122 Si          68.5290   131.0570     7.4200 Si            1 RES     
    9123 OS          72.9530   145.1110    10.9490 OS            1 RES     
    9124 O           97.5310   128.1790     7.5710 O             1 RES     
    9125 O           72.0970   102.9560     3.5790 O             1 RES     
    9126 O           73.9750   147.1680     6.4300 O             1 RES     
    9127 Si          85.6350   107.7970     5.0950 Si            1 RES     
    9128 Si          65.2560   125.1420    10.4270 Si            1 RES     
    9129 O           68.6580   135.0890    10.6360 O             1 RES     
    9130 OS          70.2660   137.5690    13.8000 OS            1 RES     
    9131 O           79.7200   118.0810    12.3670 O             1 RES     
    9132 O           76.0000   119.8770     4.2940 O             1 RES     
    9133 O           91.0400   102.2550     8.1180 O             1 RES     
    9134 Si          76.5050   109.2230     5.5330 Si            1 RES     
    9135 O           86.9120   140.4130    10.7990 O             1 RES     
    9136 O           70.7340   115.2520     4.9050 O             1 RES     
    9137 O           69.4960   118.3400    10.8120 O             1 RES     
    9138 O           72.9330   102.9620     7.0930 O             1 RES     
    9139 OS          96.3160   148.9330    13.3120 OS            1 RES     
    9140 O           75.5590   123.5770     6.4960 O             1 RES     
    9141 O           84.9440   148.6380    11.0810 O             1 RES     
    9142 Si          75.5740   119.7440    11.9030 Si            1 RES     
    9143 O           50.6750   130.5180    10.5840 O             1 RES     
    9144 Si          69.9420   106.1710     7.7720 Si            1 RES     
    9145 Si          73.1990   112.0790     3.8050 Si            1 RES     
    9146 O           80.8380   105.4450     5.9680 O             1 RES     
    9147 O           95.9100   107.5290     7.3860 O             1 RES     
    9148 Si          53.6840   112.8230    12.3480 Si            1 RES     
    9149 OS          68.8100   144.6700    12.2700 OS            1 RES     
    9150 Si          88.0060   111.3040     9.0220 Si            1 RES     
    9151 O           70.9740   136.1480     4.3800 O             1 RES     
    9152 O           83.5230   145.4890     2.9160 O             1 RES     
    9153 O           73.1790   131.3580     2.5010 O             1 RES     
    9154 Si          59.2410   145.5480     3.3790 Si            1 RES     
    9155 Si          84.3650   105.5360    12.3320 Si            1 RES     
    9156 Si          89.6160   125.8090     3.1450 Si            1 RES     
    9157 O           78.8550   116.9830     8.2740 O             1 RES     
    9158 Si          60.8730   125.4460     9.4090 Si            1 RES     
    9159 OS          52.9380   127.3670    13.5110 OS            1 RES     
    9160 OS          83.3940   145.2420    13.7960 OS            1 RES     
    9161 Si          95.8650   131.8970     2.7980 Si            1 RES     
    9162 O           93.3990   105.4610    10.9030 O             1 RES     
    9163 O           95.3100   132.5620     6.9560 O             1 RES     
    9164 O           71.8170   145.9040     5.1190 O             1 RES     
    9165 O           92.0710   147.7170     9.4400 O             1 RES     
    9166 Si          85.4420   132.0520     7.3890 Si            1 RES     
    9167 O           95.1310   114.1860     9.3770 O             1 RES     
    9168 O           63.7230   101.3210    12.2550 O             1 RES     
    9169 O           78.4180   112.2310     8.3410 O             1 RES     
    9170 O           98.1150   103.6560     3.2300 O             1 RES     
    9171 O           74.3630   121.2010     2.9820 O             1 RES     
    9172 Si          50.4750   139.2730     4.6870 Si            1 RES     
    9173 Si          99.8290   117.2240    12.6160 Si            1 RES     
    9174 O           61.8830   142.9360     5.5030 O             1 RES     
    9175 O           98.1000   118.5900     5.2710 O             1 RES     
    9176 Si          63.5760   145.1310     8.3190 Si            1 RES     
    9177 O           57.9420   129.6150     8.5510 O             1 RES     
    9178 O           69.4490   116.2870     9.2650 O             1 RES     
    9179 O           71.8720   133.0660     6.7000 O             1 RES     
    9180 Si          78.1680   132.5160     7.8900 Si            1 RES     
    9181 O           59.3260   114.7530     6.8240 O             1 RES     
    9182 Si          83.4080   123.7200     8.8770 Si            1 RES     
    9183 O           72.0920   120.6210     7.5910 O             1 RES     
    9184 O           53.4620   106.4040    10.5250 O             1 RES     
    9185 Si          87.3120   124.5400    11.4470 Si            1 RES     
    9186 O           76.2140   125.8960    11.8030 O             1 RES     
    9187 Si          89.0690   117.2800     3.3630 Si            1 RES     
    9188 O           88.6180   134.2620     4.5350 O             1 RES     
    9189 Si          87.6040   134.2130     3.3530 Si            1 RES     
    9190 O           50.7970   142.5890     7.7990 O             1 RES     
    9191 O           72.2110   113.2820     3.8790 O             1 RES     
    9192 O           53.3010   142.0190     7.2270 O             1 RES     
    9193 O           92.6960   140.5310     3.8590 O             1 RES     
    9194 Si          67.0000   105.1450     8.0970 Si            1 RES     
    9195 O           97.1890   125.8760     6.4000 O             1 RES     
    9196 O           92.6210   118.3830    10.7470 O             1 RES     
    9197 O           58.0760   115.1190     4.6190 O             1 RES     
    9198 Si          95.0950   138.4250    10.3500 Si            1 RES     
    9199 O           95.8150   100.0320     1.4580 O             1 RES     
    9200 Si          62.9980   131.8610     7.7030 Si            1 RES     
    9201 O           68.4430   118.7220     8.4660 O             1 RES     
    9202 O           74.4370   116.7460     6.5860 O             1 RES     
    9203 Si          64.9540   112.9100     6.0530 Si            1 RES     
    9204 O           64.9650   118.7910     9.9840 O             1 RES     
    9205 Si          74.7280   126.1950    11.4530 Si            1 RES     
    9206 O           97.3630   132.9210     8.3330 O             1 RES     
    9207 O           82.0960   116.7640    11.4900 O             1 RES     
    9208 O           84.8860   147.1780    12.9650 O             1 RES     
    9209 O           62.7500   115.3170     3.5650 O             1 RES     
    9210 O           85.1600   141.7720     5.1760 O             1 RES     
    9211 O           96.3020   143.3040     9.1230 O             1 RES     
    9212 O           71.4630   114.5980     8.6160 O             1 RES     
    9213 O           88.8250   147.9060     3.5560 O             1 RES     
    9214 O           83.4650   101.9990     3.7860 O             1 RES     
    9215 O           77.3030   114.6550     8.4230 O             1 RES     
    9216 O           74.3010   127.5890    11.8080 O             1 RES     
    9217 O           68.4060   147.3430    11.6440 O             1 RES     
    9218 O           56.4100   119.6400     5.3440 O             1 RES     
    9219 OS          69.7470   128.5850    12.9640 OS            1 RES     
    9220 Si          98.5780   119.7920     6.0330 Si            1 RES     
    9221 Si          63.2120   106.2720     4.4060 Si            1 RES     
    9222 Si          88.8670   143.7710     3.9090 Si            1 RES     
    9223 O           66.1730   135.9180     6.1790 O             1 RES     
    9224 Si          96.9800   102.9410     3.9820 Si            1 RES     
    9225 O           66.4210   148.9450     5.2640 O             1 RES     
    9226 O           99.7980   138.4060    12.4830 O             1 RES     
    9227 Si          78.4320   100.9860     9.0180 Si            1 RES     
    9228 O           53.7910   119.2340    12.2220 O             1 RES     
    9229 Si          87.3810   114.3720     9.2660 Si            1 RES     
    9230 O           89.6090   117.1140     4.7570 O             1 RES     
    9231 O           68.9850   123.2030     4.9360 O             1 RES     
    9232 O           83.3830   129.5890     8.6530 O             1 RES     
    9233 Si          56.5040   134.3540     3.6440 Si            1 RES     
    9234 Si          71.8010   123.4750    10.1490 Si            1 RES     
    9235 O           82.1880   102.9370    11.0530 O             1 RES     
    9236 O           98.2850   137.1040     8.2830 O             1 RES     
    9237 OS          91.0400   102.3510    12.7430 OS            1 RES     
    9238 O           71.6560   115.2860     2.4880 O             1 RES     
    9239 Si          73.6110   142.4730     6.8000 Si            1 RES     
    9240 Si          89.1900   124.7630     8.9630 Si            1 RES     
    9241 OS          73.5860   147.4960    12.0860 OS            1 RES     
    9242 OS          85.6550   144.6830    12.9390 OS            1 RES     
    9243 O           88.8090   110.5150     5.0240 O             1 RES     
    9244 Si          57.5450   117.4300    12.2700 Si            1 RES     
    9245 O           61.9280   110.0130     4.3980 O             1 RES     
    9246 O           97.4460   112.9720    12.0550 O             1 RES     
    9247 O           66.4350   101.3450     6.4240 O             1 RES     
    9248 Si          60.3130   111.8920    10.4020 Si            1 RES     
    9249 O           61.2070   132.3640    13.4470 O             1 RES     
    9250 O           73.7810   146.8420     3.9060 O             1 RES     
    9251 OS          82.3080   140.5490    13.5250 OS            1 RES     
    9252 Si          64.6130   139.8490    10.8620 Si            1 RES     
    9253 Si          59.0190   104.2510     4.0900 Si            1 RES     
    9254 O           75.1120   114.6520     5.4390 O             1 RES     
    9255 Si          94.0140   136.7140     7.7550 Si            1 RES     
    9256 OS          98.1550   110.7840    12.7930 OS            1 RES     
    9257 OS          64.5800   110.1050    13.9600 OS            1 RES     
    9258 OS          80.2540   115.4520    12.2440 OS            1 RES     
    9259 O           65.1430   139.4530     9.4470 O             1 RES     
    9260 Si          76.1430   103.1790     5.5820 Si            1 RES     
    9261 O           50.4530   103.1480     6.2690 O             1 RES     
    9262 O           96.8350   149.3910    10.9860 O             1 RES     
    9263 O           54.0590   136.5990     8.4880 O             1 RES     
    9264 Si          71.9700   114.8470     4.0010 Si            1 RES     
    9265 Si          55.4830   121.8870    10.9520 Si            1 RES     
    9266 O           62.9610   116.0130    12.0790 O             1 RES     
    9267 Si          68.5110   145.7810    11.1700 Si            1 RES     
    9268 OS          76.1120   106.5300    13.1560 OS            1 RES     
    9269 O           78.9550   111.6580     3.8450 O             1 RES     
    9270 O           66.8570   104.4800     9.5660 O             1 RES     
    9271 O           62.2070   131.3180     6.4880 O             1 RES     
    9272 Si          53.6610   147.9890     3.2660 Si            1 RES     
    9273 O           52.3810   138.3960     9.2630 O             1 RES     
    9274 O           66.4770   143.0330     5.4360 O             1 RES     
    9275 O           58.4010   137.8400     9.9930 O             1 RES     
    9276 Si          85.2360   126.0960     9.8200 Si            1 RES     
    9277 OS          91.6370   148.2940    12.0470 OS            1 RES     
    9278 O           78.3920   145.5220     9.3080 O             1 RES     
    9279 Si          58.7650   109.9060     8.6400 Si            1 RES     
    9280 Si          81.1860   140.2060     4.6190 Si            1 RES     
    9281 O           83.9620   109.7730    11.3540 O             1 RES     
    9282 Si          79.9290   138.9810    11.4220 Si            1 RES     
    9283 O           96.4470   145.4640     8.5700 O             1 RES     
    9284 O           53.8460   149.6770    12.4230 O             1 RES     
    9285 O           61.9350   126.3070    10.1220 O             1 RES     
    9286 O           84.7310   137.0780     7.2970 O             1 RES     
    9287 O           59.9940   132.7270     3.7510 O             1 RES     
    9288 OS          95.7050   112.9940    13.9360 OS            1 RES     
    9289 Si          68.4620   119.7870     7.3990 Si            1 RES     
    9290 O           61.2240   135.5340     6.4810 O             1 RES     
    9291 O           93.9110   110.6470     6.2750 O             1 RES     
    9292 O           95.5200   136.9650     7.4450 O             1 RES     
    9293 O           92.3600   147.1630     6.9220 O             1 RES     
    9294 OS          71.7830   113.9840    12.3470 OS            1 RES     
    9295 Si          88.2540   143.6100     8.9210 Si            1 RES     
    9296 O           53.3950   111.3600    11.7150 O             1 RES     
    9297 Si          56.1610   104.5190     2.9570 Si            1 RES     
    9298 Si          85.9990   104.7990     5.4630 Si            1 RES     
    9299 O           90.4460   108.8940    11.2490 O             1 RES     
    9300 Si          86.3780   108.7640     9.1110 Si            1 RES     
    9301 Si          51.8180   127.6390    12.3530 Si            1 RES     
    9302 OS          97.8010   137.1470    12.8070 OS            1 RES     
    9303 OS          61.1920   145.1340    13.1630 OS            1 RES     
    9304 O           98.1120   147.4380    10.4120 O             1 RES     
    9305 O           89.5130   120.8610     8.2070 O             1 RES     
    9306 O           76.4280   134.1630    11.4740 O             1 RES     
    9307 Si          83.3770   103.5300     3.4640 Si            1 RES     
    9308 O           86.1180   148.2970     8.6890 O             1 RES     
    9309 O           96.7490   117.9500     3.0500 O             1 RES     
    9310 O           91.6860   142.9810     6.6740 O             1 RES     
    9311 O           87.4760   112.5040     5.3120 O             1 RES     
    9312 Si          74.7900   113.2300     6.2040 Si            1 RES     
    9313 OS          88.1530   104.6200    13.3710 OS            1 RES     
    9314 O           59.6770   132.6350    11.3050 O             1 RES     
    9315 Si          83.9690   122.8690     3.4780 Si            1 RES     
    9316 O           93.9820   137.9620     9.3120 O             1 RES     
    9317 Si          62.2740   134.9140     7.4100 Si            1 RES     
    9318 O           75.0010   118.4920    11.1670 O             1 RES     
    9319 O           52.7600   124.2130    10.4020 O             1 RES     
    9320 O           92.9580   126.1660    11.8200 O             1 RES     
    9321 O           95.1440   114.4450    11.7480 O             1 RES     
    9322 Si          90.0110   139.8830     8.6920 Si            1 RES     
    9323 OS          54.8870   130.6080    12.7110 OS            1 RES     
    9324 O           86.7400   129.8300     5.2550 O             1 RES     
    9325 Si          66.6150   144.7830     8.8650 Si            1 RES     
    9326 O           64.1100   111.8590     9.6930 O             1 RES     
    9327 O           52.0850   144.1560     6.4310 O             1 RES     
    9328 O           89.2760   149.2800    12.1610 O             1 RES     
    9329 Si          89.0470   145.4520    11.2560 Si            1 RES     
    9330 Si          96.1120   142.6170    10.5030 Si            1 RES     
    9331 Si          65.9470   102.3680     7.5480 Si            1 RES     
    9332 O           59.2800   123.5000     7.5290 O             1 RES     
    9333 OS          90.7000   134.4120    12.2590 OS            1 RES     
    9334 OS          87.3970   149.2820    10.3440 OS            1 RES     
    9335 O           77.2990   109.9210     4.3170 O             1 RES     
    9336 O           97.5000   117.2100     9.6140 O             1 RES     
    9337 O           60.7770   140.0520     8.7900 O             1 RES     
    9338 Si          74.9320   124.8970     5.9010 Si            1 RES     
    9339 Si          96.2280   136.8130    12.7060 Si            1 RES     
    9340 OS          67.5710   107.1020    13.6460 OS            1 RES     
    9341 O           53.9580   131.7320     3.9260 O             1 RES     
    9342 O           80.0340   148.1820     5.4990 O             1 RES     
    9343 Si          52.3960   100.3410    12.1610 Si            1 RES     
    9344 Si          51.3740   124.8670    10.7920 Si            1 RES     
    9345 O           82.8560   114.0160     5.4360 O             1 RES     
    9346 O           55.0360   132.8140    11.2680 O             1 RES     
    9347 O           54.3950   101.0660     5.6080 O             1 RES     
    9348 Si          61.4700   114.6680     9.6650 Si            1 RES     
    9349 O           95.4260   112.4360     7.7160 O             1 RES     
    9350 Si          89.5160   133.9090    11.3150 Si            1 RES     
    9351 O           92.7260   145.9040    11.9400 O             1 RES     
    9352 OS          71.7830   105.7500    13.3060 OS            1 RES     
    9353 O           53.4140   140.7410     9.3500 O             1 RES     
    9354 O           84.3490   132.3610     3.7950 O             1 RES     
    9355 OS          54.0670   145.7170    13.0380 OS            1 RES     
    9356 O           66.5320   125.6030    11.2150 O             1 RES     
    9357 O           58.3430   140.2150     9.8420 O             1 RES     
    9358 O           54.0360   125.3720     8.7120 O             1 RES     
    9359 O           80.6800   145.8030     9.3590 O             1 RES     
    9360 O           60.0900   110.7120     6.1550 O             1 RES     
    9361 O           69.1940   117.1920     5.2050 O             1 RES     
    9362 O           87.1160   148.2080    12.3700 O             1 RES     
    9363 Si          61.3670   116.3290    12.1810 Si            1 RES     
    9364 O           85.5170   149.9290     1.5800 O             1 RES     
    9365 O           53.1960   113.4610     3.7560 O             1 RES     
    9366 O           54.0060   130.3250     6.5690 O             1 RES     
    9367 O           89.3020   100.3220     2.5230 O             1 RES     
    9368 Si          89.5480   134.3190     5.9030 Si            1 RES     
    9369 Si          69.5940   118.6870     4.7920 Si            1 RES     
    9370 OS          65.5400   111.8900    12.5810 OS            1 RES     
    9371 Si          53.2760   122.0430     6.8940 Si            1 RES     
    9372 O           54.7160   144.8320     2.2930 O             1 RES     
    9373 Si          66.4430   103.1290    10.4140 Si            1 RES     
    9374 O           84.7450   120.4650     6.8190 O             1 RES     
    9375 O           92.7410   149.4860     7.9210 O             1 RES     
    9376 O           59.6600   125.8890     8.2980 O             1 RES     
    9377 Si          64.1900   140.4600     5.9330 Si            1 RES     
    9378 O           52.1890   107.9920     5.7940 O             1 RES     
    9379 OS          66.4940   121.9160    12.0070 OS            1 RES     
    9380 OS          58.7360   123.7110    12.1360 OS            1 RES     
    9381 O           59.6740   103.0890     7.3500 O             1 RES     
    9382 Si          95.4850   102.3080     9.1260 Si            1 RES     
    9383 O           84.5530   101.7420     7.1130 O             1 RES     
    9384 Si          97.6950   146.8240     4.1620 Si            1 RES     
    9385 O           59.0940   131.8780     9.0570 O             1 RES     
    9386 O           82.8540   111.6640    10.2560 O             1 RES     
    9387 O           89.9370   112.6720     5.1830 O             1 RES     
    9388 O           92.7870   107.5880     3.9020 O             1 RES     
    9389 OS          91.5110   144.6970    13.8950 OS            1 RES     
    9390 Si          53.5110   126.4870     7.6910 Si            1 RES     
    9391 O           74.8100   140.6180     2.1530 O             1 RES     
    9392 O           78.0830   119.4000    14.1250 O             1 RES     
    9393 Si          95.3360   148.4560     5.2530 Si            1 RES     
    9394 O           65.0890   116.2570    10.7830 O             1 RES     
    9395 O           51.7470   125.2300     4.6450 O             1 RES     
    9396 O           70.2430   149.6870    11.9420 O             1 RES     
    9397 Si          51.9550   142.6290     6.7790 Si            1 RES     
    9398 Si          71.5380   103.5220     7.4470 Si            1 RES     
    9399 O           67.2980   145.0130    10.2930 O             1 RES     
    9400 O           64.1450   139.2150     6.8920 O             1 RES     
    9401 O           60.4990   119.3050     7.6740 O             1 RES     
    9402 Si          64.9070   107.2060     6.9330 Si            1 RES     
    9403 Si          78.6810   125.7310     9.3460 Si            1 RES     
    9404 O           85.3300   130.3750     2.9760 O             1 RES     
    9405 Si          58.6830   143.2050     7.6990 Si            1 RES     
    9406 O           64.0870   129.7210     3.3030 O             1 RES     
    9407 O           83.0820   122.8120    10.2330 O             1 RES     
    9408 O           97.5190   136.2220     3.8790 O             1 RES     
    9409 Si          78.5250   106.5820    10.1990 Si            1 RES     
    9410 Si          97.4500   117.4220     4.3660 Si            1 RES     
    9411 O           78.1610   115.8470     6.3670 O             1 RES     
    9412 OS          51.1650   122.8170    14.2730 OS            1 RES     
    9413 O           94.8110   100.9100     8.5730 O             1 RES     
    9414 O           68.5750   127.3960     6.6910 O             1 RES     
    9415 O           76.1090   103.3020     3.9990 O             1 RES     
    9416 Si          92.6060   134.7230     9.4340 Si            1 RES     
    9417 Si          95.3720   110.9610     7.0310 Si            1 RES     
    9418 O           72.5860   129.5690     3.9380 O             1 RES     
    9419 Si          90.2970   131.3540     6.4800 Si            1 RES     
    9420 Si          56.0960   133.9830    10.8440 Si            1 RES     
    9421 O           62.7440   130.9830     8.8940 O             1 RES     
    9422 O           96.1210   101.2430    12.8700 O             1 RES     
    9423 O           76.2930   130.5420     3.2220 O             1 RES     
    9424 O           57.8820   124.5560     9.3200 O             1 RES     
    9425 O           77.0360   122.2950     8.3600 O             1 RES     
    9426 O           75.2950   100.7040    10.3780 O             1 RES     
    9427 Si          74.9280   117.5040     7.8380 Si            1 RES     
    9428 O           98.6180   104.1440    10.7340 O             1 RES     
    9429 O           75.6520   128.5460     7.8160 O             1 RES     
    9430 O           69.8470   124.9840     6.4890 O             1 RES     
    9431 Si          91.6370   112.8030    10.9200 Si            1 RES     
    9432 Si          85.3520   101.3890    12.1150 Si            1 RES     
    9433 Si          96.8970   137.7350     7.7620 Si            1 RES     
    9434 O           76.2440   107.4510     2.2640 O             1 RES     
    9435 O           55.3780   135.8640     6.8210 O             1 RES     
    9436 O           95.1740   127.8150     2.8680 O             1 RES     
    9437 Si          93.8770   127.3760    11.5510 Si            1 RES     
    9438 Si          62.5270   108.5340     8.2720 Si            1 RES     
    9439 O           53.5620   128.0480     7.7900 O             1 RES     
    9440 O           55.2150   122.8920     2.7460 O             1 RES     
    9441 O           96.5290   122.0670     9.2400 O             1 RES     
    9442 Si          63.1480   115.3560     5.0550 Si            1 RES     
    9443 O           74.9450   129.7810    11.9010 O             1 RES     
    9444 O           50.0590   117.7840     9.3110 O             1 RES     
    9445 O           69.1170   113.8090     9.2550 O             1 RES     
    9446 O           54.0670   137.3420     4.9070 O             1 RES     
    9447 O           86.9140   110.2500     9.4460 O             1 RES     
    9448 O           85.5640   106.3480     5.5660 O             1 RES     
    9449 OS          79.1860   138.1350    12.6570 OS            1 RES     
    9450 Si          81.8730   137.3300     3.6020 Si            1 RES     
    9451 O           92.7740   103.8650     8.6890 O             1 RES     
    9452 O           99.9610   133.5230     2.2830 O             1 RES     
    9453 O           86.2550   126.7060     8.7730 O             1 RES     
    9454 Si          64.0130   115.1700    11.1740 Si            1 RES     
    9455 OS          53.7870   116.7630    12.8830 OS            1 RES     
    9456 Si          98.5450   105.0490    12.0960 Si            1 RES     
    9457 O           90.6880   122.2130     4.0540 O             1 RES     
    9458 O           64.5790   132.1970     7.4600 O             1 RES     
    9459 O           90.8770   138.5600     8.8240 O             1 RES     
    9460 O           74.8340   143.0310     2.6420 O             1 RES     
    9461 Si          80.0510   119.2360     5.0320 Si            1 RES     
    9462 O           82.2550   108.4950     2.8570 O             1 RES     
    9463 O           95.1300   132.9420     1.8010 O             1 RES     
    9464 OS          73.0200   132.1490    12.2200 OS            1 RES     
    9465 Si          56.2410   143.4290     9.5200 Si            1 RES     
    9466 Si          76.1320   127.2990     4.2450 Si            1 RES     
    9467 O           89.7030   143.2250     8.3650 O             1 RES     
    9468 O           58.5980   146.3720     2.2240 O             1 RES     
    9469 Si          84.6490   103.1510     7.7220 Si            1 RES     
    9470 O           65.1550   111.3100     5.9300 O             1 RES     
    9471 Si          55.3720   110.0700     4.4590 Si            1 RES     
    9472 O           92.3490   107.4910    12.1660 O             1 RES     
    9473 O           65.4210   140.4660    12.0290 O             1 RES     
    9474 O           55.0060   104.4480     4.0530 O             1 RES     
    9475 O           69.4280   145.2850     5.8050 O             1 RES     
    9476 O           94.4440   146.5930    10.0370 O             1 RES     
    9477 O           99.3310   132.3570     9.5320 O             1 RES     
    9478 O           80.1120   126.0840     8.9200 O             1 RES     
    9479 O           60.4160   101.0990     2.8170 O             1 RES     
    9480 O           55.6430   134.8800     9.6260 O             1 RES     
    9481 O           60.6130   129.6900     9.5080 O             1 RES     
    9482 O           88.9430   130.5190     6.3560 O             1 RES     
    9483 O           60.5100   108.1880     5.4640 O             1 RES     
    9484 O           68.0080   149.7870    12.4920 O             1 RES     
    9485 O           79.9750   118.5390     6.4630 O             1 RES     
    9486 Si          93.5010   106.3350    12.2980 Si            1 RES     
    9487 O           81.0460   133.8030     5.5130 O             1 RES     
    9488 O           58.9270   111.8520    11.1040 O             1 RES     
    9489 O           72.6540   100.6510     6.3860 O             1 RES     
    9490 O           95.1230   132.2190     9.7350 O             1 RES     
    9491 O           65.4250   108.6330     6.4840 O             1 RES     
    9492 O           74.3040   133.2740     3.2250 O             1 RES     
    9493 O           99.8890   113.0660     8.7600 O             1 RES     
    9494 Si          58.1590   111.0630     5.8820 Si            1 RES     
    9495 Si          59.7230   106.6800    12.0750 Si            1 RES     
    9496 Si          78.4790   108.4120     7.7260 Si            1 RES     
    9497 Si          50.5120   107.5370    12.0020 Si            1 RES     
    9498 O           59.6710   105.6550     4.5980 O             1 RES     
    9499 O           50.6430   146.6160     2.2410 O             1 RES     
    9500 O           97.4550   113.8010     8.3070 O             1 RES     
    9501 O           68.8750   125.6890    11.5620 O             1 RES     
    9502 Si          59.6420   129.2860     3.6580 Si            1 RES     
    9503 O           56.7420   127.7270     7.4510 O             1 RES     
    9504 Si          57.3690   111.2960    10.8940 Si            1 RES     
    9505 Si          80.6730   132.5360     9.5370 Si            1 RES     
    9506 O           62.3410   133.3180     7.6750 O             1 RES     
    9507 Si          55.5320   136.0130     8.4250 Si            1 RES     
    9508 Si          73.0290   143.0570    11.1760 Si            1 RES     
    9509 Si          90.9590   108.1710     7.5530 Si            1 RES     
    9510 OS          69.6480   148.2890    13.7740 OS            1 RES     
    9511 O           84.4150   122.6970     5.0520 O             1 RES     
    9512 O           71.5930   103.0260     9.0560 O             1 RES     
    9513 Si          85.2580   114.0110    11.5060 Si            1 RES     
    9514 O           65.8700   132.0780     9.6110 O             1 RES     
    9515 O           77.1660   118.1990     2.9840 O             1 RES     
    9516 O           52.9420   129.6550     4.5650 O             1 RES     
    9517 Si          91.6730   143.7280     5.2710 Si            1 RES     
    9518 O           89.1920   100.5770     7.9150 O             1 RES     
    9519 O           62.7510   119.8360     9.1320 O             1 RES     
    9520 O           71.9460   142.2760    10.3200 O             1 RES     
    9521 O           64.1980   138.2730     2.9000 O             1 RES     
    9522 O           79.3360   132.1020     8.8840 O             1 RES     
    9523 O           99.7930   110.4860     8.6050 O             1 RES     
    9524 O           76.2920   112.6820     9.6340 O             1 RES     
    9525 O           59.8200   125.0990    10.5220 O             1 RES     
    9526 Si          77.4390   119.6000     3.5680 Si            1 RES     
    9527 O           56.6230   114.8530     6.6910 O             1 RES     
    9528 O           58.6230   149.0540    10.4420 O             1 RES     
    9529 O           94.8180   126.8060    10.4470 O             1 RES     
    9530 O           61.7380   109.5000     1.6330 O             1 RES     
    9531 O           97.2400   146.8150     2.7000 O             1 RES     
    9532 O           84.5170   124.8560     9.2050 O             1 RES     
    9533 O           70.2360   109.1000    10.6340 O             1 RES     
    9534 Si          75.7150   141.7100     2.8710 Si            1 RES     
    9535 O           84.9960   119.4610     9.2060 O             1 RES     
    9536 Si          91.4990   119.5180    11.1150 Si            1 RES     
    9537 Si          65.2730   110.2900    12.5260 Si            1 RES     
    9538 O           86.2120   118.2560     7.4380 O             1 RES     
    9539 O           79.3970   136.5730     9.2700 O             1 RES     
    9540 O           55.0300   123.2810    10.2570 O             1 RES     
    9541 Si          50.3920   142.2210     4.1890 Si            1 RES     
    9542 O           99.4230   118.8260    12.6940 O             1 RES     
    9543 O           77.1160   127.9850     5.1480 O             1 RES     
    9544 Si          58.2650   140.9430     4.4180 Si            1 RES     
    9545 O           91.1300   122.0980     6.6650 O             1 RES     
    9546 O           95.5570   131.9600     4.3400 O             1 RES     
    9547 O           50.1660   119.6860     6.1490 O             1 RES     
    9548 Si          83.2720   108.2920    11.3850 Si            1 RES     
    9549 O           72.7000   100.6170     4.0170 O             1 RES     
    9550 O           63.0960   147.7250     5.9260 O             1 RES     
    9551 Si          72.7790   101.7000     2.8520 Si            1 RES     
    9552 O           66.3630   113.3470     5.6630 O             1 RES     
    9553 O           80.9870   148.2450    10.0420 O             1 RES     
    9554 O           87.2390   149.7590     3.5030 O             1 RES     
    9555 Si          80.8900   116.7310     3.3720 Si            1 RES     
    9556 O           76.4990   144.3450     9.2110 O             1 RES     
    9557 O           99.2220   126.2600     7.9750 O             1 RES     
    9558 OS          53.4010   139.1840    11.4160 OS            1 RES     
    9559 O           83.9070   131.6450     7.3760 O             1 RES     
    9560 O           93.4510   115.8270    10.1300 O             1 RES     
    9561 Si          96.0430   125.0580     5.6030 Si            1 RES     
    9562 O           51.8810   126.1950     7.7000 O             1 RES     
    9563 O           67.3560   102.2180    11.3970 O             1 RES     
    9564 O           57.1550   117.3080     4.0380 O             1 RES     
    9565 Si          92.4350   110.2010     5.9260 Si            1 RES     
    9566 Si          90.6900   103.0210    11.3890 Si            1 RES     
    9567 O           69.3480   100.7980     2.3270 O             1 RES     
    9568 O           69.9280   129.8800    10.9250 O             1 RES     
    9569 O           69.4570   120.9430     7.8900 O             1 RES     
    9570 O           60.7040   113.2600     9.7220 O             1 RES     
    9571 Si          50.4770   101.6020     5.9420 Si            1 RES     
    9572 O           59.4100   101.3120    10.7100 O             1 RES     
    9573 Si          68.7360   117.6360     9.5480 Si            1 RES     
    9574 O           55.7520   147.8330    12.9800 O             1 RES     
    9575 O           69.8340   107.1440     8.9810 O             1 RES     
    9576 Si          68.1230   108.5540     3.6600 Si            1 RES     
    9577 Si          58.9940   133.1040    10.0430 Si            1 RES     
    9578 O           85.6350   137.2760     4.9160 O             1 RES     
    9579 O           93.9320   130.7370     6.0400 O             1 RES     
    9580 Si          60.3410   136.8300     3.1460 Si            1 RES     
    9581 OS          80.0060   134.1070    13.8750 OS            1 RES     
    9582 OS          83.7480   133.1240    13.3250 OS            1 RES     
    9583 Si          57.3310   143.7630     4.9050 Si            1 RES     
    9584 O           62.4480   123.4040     3.5910 O             1 RES     
    9585 O           96.8580   141.0190     2.4920 O             1 RES     
    9586 Si          61.1820   120.0760     8.8680 Si            1 RES     
    9587 Si          76.8970   132.7770    12.0530 Si            1 RES     
    9588 O           81.1770   138.7570     3.8720 O             1 RES     
    9589 O           92.7610   136.9040     6.8720 O             1 RES     
    9590 O           50.1790   145.8030    11.0080 O             1 RES     
    9591 O           64.9690   139.8680     4.7060 O             1 RES     
    9592 O           59.7750   130.5060     2.5650 O             1 RES     
    9593 Si          76.2080   135.7160    11.4330 Si            1 RES     
    9594 O           83.8200   101.8110    12.2470 O             1 RES     
    9595 O           82.2410   124.6310     8.4590 O             1 RES     
    9596 O           94.9250   106.9980    12.2900 O             1 RES     
    9597 Si          60.0470   106.9750     9.0140 Si            1 RES     
    9598 O           54.9290   113.9990     8.3470 O             1 RES     
    9599 Si          73.0970   134.0080     6.9800 Si            1 RES     
    9600 O           85.3680   149.2480     6.6070 O             1 RES     
    9601 O           88.6330   103.1870     8.2330 O             1 RES     
    9602 O           74.3640   125.9410     9.8980 O             1 RES     
    9603 Si          51.3860   104.4330     6.3760 Si            1 RES     
    9604 O           86.0720   125.4030    10.9870 O             1 RES     
    9605 Si          83.3970   100.4560     4.1020 Si            1 RES     
    9606 O           97.7770   145.4010     4.5940 O             1 RES     
    9607 O           99.6460   100.9140     7.0600 O             1 RES     
    9608 Si          99.7490   142.7510     8.8430 Si            1 RES     
    9609 O           71.0710   105.0660     7.7670 O             1 RES     
    9610 Si          67.6200   108.2770    12.5210 Si            1 RES     
    9611 O           73.8990   108.0890     8.4830 O             1 RES     
    9612 O           94.9940   106.8110     5.0230 O             1 RES     
    9613 O           88.3840   127.7090     9.6910 O             1 RES     
    9614 Si          52.3000   149.5910     9.1770 Si            1 RES     
    9615 O           61.0760   117.9080    12.0650 O             1 RES     
    9616 Si          52.4870   145.5200     5.7490 Si            1 RES     
    9617 O           55.1070   113.1130     2.0220 O             1 RES     
    9618 O           67.3130   117.3870    10.0950 O             1 RES     
    9619 O           88.8030   118.8680     3.1010 O             1 RES     
    9620 O           56.2230   105.3790     1.6200 O             1 RES     
    9621 O           83.8930   137.3990    11.2720 O             1 RES     
    9622 OS          85.5880   137.9490    13.8270 OS            1 RES     
    9623 OS          55.7350   122.1460    12.4840 OS            1 RES     
    9624 Si          80.0550   120.4620     9.8690 Si            1 RES     
    9625 O           56.6910   121.9270     4.9560 O             1 RES     
    9626 O           67.7340   121.6430     3.5230 O             1 RES     
    9627 O           69.7000   145.8050    10.1940 O             1 RES     
    9628 O           71.0350   110.2870     8.9720 O             1 RES     
    9629 Si          50.3040   111.6260     9.5100 Si            1 RES     
    9630 Si          97.8920   139.8850     5.9730 Si            1 RES     
    9631 Si          75.8660   144.0270    10.5700 Si            1 RES     
    9632 O           53.1940   100.0020     7.9500 O             1 RES     
    9633 O           83.6470   134.4260     4.8550 O             1 RES     
    9634 Si          80.7270   142.4020     8.4770 Si            1 RES     
    9635 Si          84.7700   137.8690     3.8180 Si            1 RES     
    9636 O           50.9940   110.8450     2.6310 O             1 RES     
    9637 O           79.2810   120.1280    11.1720 O             1 RES     
    9638 O           65.4150   107.7660     1.5950 O             1 RES     
    9639 O           68.3850   135.8390     4.7270 O             1 RES     
    9640 Si          95.2900   125.8680     9.3100 Si            1 RES     
    9641 Si          92.5050   122.3130    10.4510 Si            1 RES     
    9642 Si          65.7320   129.5360     3.7050 Si            1 RES     
    9643 Si          59.6690   147.8430     5.4930 Si            1 RES     
    9644 O           62.3740   148.9220     8.1810 O             1 RES     
    9645 O           74.6360   100.9360     7.9300 O             1 RES     
    9646 O           69.8080   103.0050     3.2320 O             1 RES     
    9647 O           85.4430   100.0010    12.9260 O             1 RES     
    9648 O           56.8130   127.9240     9.9120 O             1 RES     
    9649 O           86.6000   138.8690     6.7020 O             1 RES     
    9650 Si          60.1060   119.0830    11.7060 Si            1 RES     
    9651 O           69.5560   115.3870     7.1320 O             1 RES     
    9652 O           63.4780   147.4240     3.3610 O             1 RES     
    9653 OS          83.1620   111.7520    13.1050 OS            1 RES     
    9654 O           60.6930   126.6800     1.2410 O             1 RES     
    9655 O           72.8730   122.8310    11.1670 O             1 RES     
    9656 O           61.8470   121.1590     4.2940 O             1 RES     
    9657 Si          71.9760   112.3940    12.3550 Si            1 RES     
    9658 O           62.8560   109.6200     9.3420 O             1 RES     
    9659 Si          65.5080   138.7700     3.6850 Si            1 RES     
    9660 O           87.2780   142.6790     9.7680 O             1 RES     
    9661 O           58.5470   110.3990     4.4330 O             1 RES     
    9662 O           54.3780   146.6300     8.9120 O             1 RES     
    9663 O           79.9050   145.6210     6.1860 O             1 RES     
    9664 Si          83.6080   114.0500     6.7690 Si            1 RES     
    9665 O           56.9040   114.7780     2.4800 O             1 RES     
    9666 O           67.7290   146.9900     5.8550 O             1 RES     
    9667 O           63.0630   102.0570     5.8520 O             1 RES     
    9668 O           64.9550   120.6690     8.2220 O             1 RES     
    9669 O           76.1070   141.4050     4.3750 O             1 RES     
    9670 O           76.7350   126.8440     2.9100 O             1 RES     
    9671 O           80.0560   102.9350     5.7890 O             1 RES     
    9672 O           95.2980   121.2120     4.8160 O             1 RES     
    9673 O           59.9770   110.8910     9.1250 O             1 RES     
    9674 Si          65.7720   132.3240    11.1840 Si            1 RES     
    9675 O           75.9570   132.4380     4.9530 O             1 RES     
    9676 O           99.6260   138.0500     4.0950 O             1 RES     
    9677 Si          77.7560   122.5190     3.0090 Si            1 RES     
    9678 O           56.1310   118.0340    12.6980 O             1 RES     
    9679 Si          79.6580   112.5070     4.9570 Si            1 RES     
    9680 Si          70.6900   103.4160     4.4270 Si            1 RES     
    9681 O           68.0140   137.6140     6.4480 O             1 RES     
    9682 Si          57.4400   149.6480     6.7860 Si            1 RES     
    9683 O           61.4600   142.1930     3.2080 O             1 RES     
    9684 O           57.4840   142.2850     4.2520 O             1 RES     
    9685 O           70.4090   141.3470     8.5420 O             1 RES     
    9686 O           77.7690   115.8050     3.7780 O             1 RES     
    9687 O           70.8050   122.5490     6.6200 O             1 RES     
    9688 O           97.1940   109.1690     3.9050 O             1 RES     
    9689 OS          93.1990   132.2580    11.8910 OS            1 RES     
    9690 OS          52.5250   101.7930    12.7490 OS            1 RES     
    9691 O           65.8720   131.1240     3.5680 O             1 RES     
    9692 O           86.9670   123.0980    12.0190 O             1 RES     
    9693 O           74.6860   105.7720     8.6550 O             1 RES     
    9694 Si          53.3320   117.0320     2.8190 Si            1 RES     
    9695 O           96.1960   119.5610     9.2260 O             1 RES     
    9696 O           54.2990   111.6510     9.3740 O             1 RES     
    9697 Si          93.9040   120.4480     4.8120 Si            1 RES     
    9698 O           74.8680   135.8760    12.2940 O             1 RES     
    9699 O           73.6580   118.9010     3.6840 O             1 RES     
    9700 Si          64.1220   137.2970    12.4430 Si            1 RES     
    9701 Si          98.3240   103.2150     9.4960 Si            1 RES     
    9702 O           58.7600   145.0380    12.2370 O             1 RES     
    9703 Si          85.3480   134.2110     9.5120 Si            1 RES     
    9704 Si          97.0210   100.0510    12.4420 Si            1 RES     
    9705 O           69.9310   133.8980     5.2210 O             1 RES     
    9706 O           57.6010   134.5360     2.5650 O             1 RES     
    9707 O           65.1770   144.2300     2.7320 O             1 RES     
    9708 O           91.9330   137.9030     4.7360 O             1 RES     
    9709 Si          56.2890   117.4690     9.5750 Si            1 RES     
    9710 O           60.2860   101.4390     5.2360 O             1 RES     
    9711 O           73.4720   143.8750     7.4750 O             1 RES     
    9712 O           56.0160   144.9060     9.1190 O             1 RES     
    9713 Si          62.5860   109.9290     3.0050 Si            1 RES     
    9714 O           52.3750   115.4810     5.2860 O             1 RES     
    9715 Si          55.0570   113.0090     9.6470 Si            1 RES     
    9716 O           68.5420   105.3050     7.9260 O             1 RES     
    9717 O           98.6410   143.7890     8.4790 O             1 RES     
    9718 O           61.8310   130.9040    11.1600 O             1 RES     
    9719 O           85.0670   113.4710     6.3520 O             1 RES     
    9720 Si          92.0050   138.9920     3.5840 Si            1 RES     
    9721 O           58.0640   140.0100     3.0870 O             1 RES     
    9722 Si          78.7100   137.9400     8.8920 Si            1 RES     
    9723 Si          51.4570   107.3840     7.0950 Si            1 RES     
    9724 O           69.5950   131.6930     6.4870 O             1 RES     
    9725 Si          70.2910   110.6330    10.3250 Si            1 RES     
    9726 O           99.4830   109.5720     4.3120 O             1 RES     
    9727 Si          99.2360   130.9390    10.2300 Si            1 RES     
    9728 O           79.8460   141.2250     8.0550 O             1 RES     
    9729 Si          69.0220   125.9820     7.4110 Si            1 RES     
    9730 O           73.4690   113.3370     9.5400 O             1 RES     
    9731 Si          73.9240   124.9980     8.7160 Si            1 RES     
    9732 OS          83.2710   137.9530    13.2690 OS            1 RES     
    9733 OS          72.4530   121.1830    13.0020 OS            1 RES     
    9734 O           75.8540   125.8150     5.0220 O             1 RES     
    9735 O           90.4720   131.4740     8.0220 O             1 RES     
    9736 Si          99.0790   109.2880     7.9830 Si            1 RES     
    9737 OS          56.2560   106.2770    13.5190 OS            1 RES     
    9738 Si          84.2060   140.7980     4.4520 Si            1 RES     
    9739 O           88.6100   137.7160     3.1690 O             1 RES     
    9740 Si          57.0770   120.2490     8.8390 Si            1 RES     
    9741 Si          98.9090   146.5840    11.4290 Si            1 RES     
    9742 O           88.3370   126.5730     2.7100 O             1 RES     
    9743 Si          84.5520   109.9310     7.0270 Si            1 RES     
    9744 Si          70.0360   131.2220    10.1190 Si            1 RES     
    9745 O           52.8930   122.2920     2.5400 O             1 RES     
    9746 Si          77.6670   116.0710     7.8400 Si            1 RES     
    9747 O           78.8060   113.8260     5.0430 O             1 RES     
    9748 Si          74.8180   112.7050    10.9700 Si            1 RES     
    9749 Si          98.9160   133.1910     8.2340 Si            1 RES     
    9750 Si          69.3220   138.0950    12.5930 Si            1 RES     
    9751 Si          51.9380   135.8990    11.6940 Si            1 RES     
    9752 O           95.7460   137.2740    11.2740 O             1 RES     
    9753 OS          91.7790   130.2140    12.0810 OS            1 RES     
    9754 OS          59.6630   130.5690    12.2770 OS            1 RES     
    9755 Si          69.9030   114.9890     8.5670 Si            1 RES     
    9756 O           75.7710   104.4830     6.4720 O             1 RES     
    9757 O           98.9850   132.2290     4.6010 O             1 RES     
    9758 Si          87.7750   139.8480     6.4840 Si            1 RES     
    9759 O           58.1810   101.0180     6.6000 O             1 RES     
    9760 O           57.9860   109.8280     2.0970 O             1 RES     
    9761 Si          79.5330   133.3360     5.4390 Si            1 RES     
    9762 O           96.2350   123.4670     5.7550 O             1 RES     
    9763 Si          67.2150   128.3100     6.4770 Si            1 RES     
    9764 O           73.2530   107.7300     5.9480 O             1 RES     
    9765 O           70.2230   141.7250     6.0320 O             1 RES     
    9766 Si          64.1060   102.9270    12.3560 Si            1 RES     
    9767 O           69.4250   126.0820     8.9530 O             1 RES     
    9768 Si          57.2080   148.9900     9.7760 Si            1 RES     
    9769 O           63.0180   137.7460    13.3970 O             1 RES     
    9770 Si          99.0280   116.6680     9.7360 Si            1 RES     
    9771 O           88.7140   139.7180     7.7470 O             1 RES     
    9772 Si          80.7840   146.8420     5.9520 Si            1 RES     
    9773 O           60.4830   129.8580     4.8470 O             1 RES     
    9774 O           93.3200   141.9460     1.6670 O             1 RES     
    9775 Si          68.2410   112.9120    10.1490 Si            1 RES     
    9776 O           60.7840   143.1810    10.3760 O             1 RES     
    9777 O           92.2450   142.8690     9.2390 O             1 RES     
    9778 Si          78.5000   122.7930     8.3570 Si            1 RES     
    9779 O           54.2370   121.0310    10.8790 O             1 RES     
    9780 O           81.8450   108.4730    11.9550 O             1 RES     
    9781 O           94.0220   122.2570     9.9290 O             1 RES     
    9782 Si          89.1410   149.3650     6.8780 Si            1 RES     
    9783 Si          55.3790   100.2450     4.5480 Si            1 RES     
    9784 O           58.0870   110.3600     7.2540 O             1 RES     
    9785 O           79.9120   143.3700     9.5960 O             1 RES     
    9786 Si          93.3470   117.3420     9.7490 Si            1 RES     
    9787 O           71.2180   138.5560     4.1250 O             1 RES     
    9788 Si          96.2780   118.2610    10.0530 Si            1 RES     
    9789 O           69.3690   139.5920     7.2420 O             1 RES     
    9790 O           97.3990   113.5140     4.6950 O             1 RES     
    9791 Si          79.8150   133.5000    12.2720 Si            1 RES     
    9792 O           79.7090   104.6080     3.9520 O             1 RES     
    9793 O           74.4790   106.5760     3.9720 O             1 RES     
    9794 Si          95.4830   100.4720     2.9760 Si            1 RES     
    9795 O           92.9600   121.7040     4.9030 O             1 RES     
    9796 O           61.2310   119.0010     2.7990 O             1 RES     
    9797 Si          80.8700   108.1510     3.5780 Si            1 RES     
    9798 Si          60.7240   144.5390     9.5680 Si            1 RES     
    9799 O           94.5910   103.2770    10.0920 O             1 RES     
    9800 OS          90.6880   112.9890    12.1640 OS            1 RES     
    9801 O           73.7620   134.0750     5.5450 O             1 RES     
    9802 O           78.5770   119.4320     4.6810 O             1 RES     
    9803 Si          98.8450   132.4750     3.0400 Si            1 RES     
    9804 O           52.2640   128.7650    11.3580 O             1 RES     
    9805 O           58.7090   118.4050    12.0580 O             1 RES     
    9806 Si          86.6600   129.8290     3.7120 Si            1 RES     
    9807 O           74.6190   121.3980     7.7070 O             1 RES     
    9808 Si          89.7760   127.3710    10.4760 Si            1 RES     
    9809 OS          98.4250   130.9370    11.5870 OS            1 RES     
    9810 O           86.1050   103.2680     8.2910 O             1 RES     
    9811 O           62.4430   101.3040     8.2790 O             1 RES     
    9812 Si          83.4360   116.4340    10.8380 Si            1 RES     
    9813 Si          80.7530   104.1730     5.0870 Si            1 RES     
    9814 O           56.1070   138.0600     5.8620 O             1 RES     
    9815 O           88.6680   136.4770     8.9480 O             1 RES     
    9816 Si          61.1630   109.6020     5.7720 Si            1 RES     
    9817 Si          90.3730   114.4940     8.7190 Si            1 RES     
    9818 O           99.6810   132.3530     7.0340 O             1 RES     
    9819 O           64.2170   122.5440    13.1760 O             1 RES     
    9820 O           83.6960   115.5260     7.1440 O             1 RES     
    9821 O           84.6540   149.6130     3.8450 O             1 RES     
    9822 O           50.6790   130.3410     5.3820 O             1 RES     
    9823 Si          69.0850   148.6460    12.2470 Si            1 RES     
    9824 Si          72.1510   102.9900    10.5480 Si            1 RES     
    9825 O           84.7300   136.8210     2.4400 O             1 RES     
    9826 O           52.4910   118.3390     2.9200 O             1 RES     
    9827 Si          96.3210   141.5570     3.9180 Si            1 RES     
    9828 O           85.5150   112.7300     1.6720 O             1 RES     
    9829 O           70.6750   135.7400     9.5880 O             1 RES     
    9830 O           94.1660   126.3470     8.2340 O             1 RES     
    9831 Si          50.5010   125.4290     7.9210 Si            1 RES     
    9832 O           75.2210   139.4880     5.9300 O             1 RES     
    9833 OS          96.3090   135.2350    12.6710 OS            1 RES     
    9834 O           69.1550   107.3510     3.9290 O             1 RES     
    9835 O           74.3180   125.4750     7.2570 O             1 RES     
    9836 O           94.5330   142.4470    10.6150 O             1 RES     
    9837 O           82.8890   137.2560     8.9580 O             1 RES     
    9838 OS          51.4300   107.6250    13.2710 OS            1 RES     
    9839 Si          60.0770   118.5520     6.3800 Si            1 RES     
    9840 Si          65.4110   112.2030     8.9330 Si            1 RES     
    9841 Si          73.5250   122.0570    12.3530 Si            1 RES     
    9842 O           82.6580   129.0700    10.7970 O             1 RES     
    9843 O           68.9780   111.5120    10.0640 O             1 RES     
    9844 OS          75.6930   119.3670    13.4870 OS            1 RES     
    9845 O           92.1530   109.8200     4.4030 O             1 RES     
    9846 OS          81.5440   117.1520    13.7880 OS            1 RES     
    9847 O           68.3820   107.7760    11.1990 O             1 RES     
    9848 Si          69.9120   125.9010    10.4390 Si            1 RES     
    9849 Si          71.2670   139.6860     3.0300 Si            1 RES     
    9850 O           60.3610   144.5950     2.8460 O             1 RES     
    9851 O           69.7400   145.9700     3.4200 O             1 RES     
    9852 Si          68.8430   110.6020     5.8770 Si            1 RES     
    9853 O           61.3070   124.0840     8.6510 O             1 RES     
    9854 OS          71.1670   101.4560    13.9310 OS            1 RES     
    9855 O           58.0970   129.2030     4.1690 O             1 RES     
    9856 O           83.8360   110.8010     2.9710 O             1 RES     
    9857 O           51.1100   120.6060     3.1090 O             1 RES     
    9858 Si          96.7980   120.7630     8.3390 Si            1 RES     
    9859 O           62.9400   138.4750     8.8170 O             1 RES     
    9860 Si          79.6600   144.8580    10.0510 Si            1 RES     
    9861 O           61.2120   115.4640     8.3510 O             1 RES     
    9862 Si          89.6190   102.0610     8.6460 Si            1 RES     
    9863 O           69.3910   139.6610    12.7410 O             1 RES     
    9864 O           97.5620   107.4470     5.5700 O             1 RES     
    9865 Si          89.2700   136.7440    10.3940 Si            1 RES     
    9866 O           93.0340   118.0030     8.3440 O             1 RES     
    9867 Si          81.7660   106.8110     9.2550 Si            1 RES     
    9868 O           52.4310   120.7180     6.6690 O             1 RES     
    9869 Si          91.7730   144.6900    12.3280 Si            1 RES     
    9870 O           78.3720   133.8490     7.0030 O             1 RES     
    9871 OS          62.9090   127.3060    12.5350 OS            1 RES     
    9872 Si          54.1990   105.0560    10.8450 Si            1 RES     
    9873 O           89.9540   105.4880     5.1340 O             1 RES     
    9874 Si          52.1290   114.5270     4.0690 Si            1 RES     
    9875 Si          73.8080   108.7590     7.0580 Si            1 RES     
    9876 O           65.0930   100.7780     4.4410 O             1 RES     
    9877 O           84.8950   104.1750     6.5650 O             1 RES     
    9878 OS          84.3920   129.4680    12.5620 OS            1 RES     
    9879 O           53.3300   122.7720     8.3380 O             1 RES     
    9880 O           68.1330   109.5050     2.4330 O             1 RES     
    9881 O           62.2920   144.5360     9.1110 O             1 RES     
    9882 O           56.9350   120.8710     7.3810 O             1 RES     
    9883 Si          58.2440   137.4110     8.3920 Si            1 RES     
    9884 OS          75.8330   115.4440    13.8280 OS            1 RES     
    9885 Si          63.5490   134.3190    11.9030 Si            1 RES     
    9886 Si          69.7110   107.5830    10.4450 Si            1 RES     
    9887 Si          78.6080   115.3720     4.9640 Si            1 RES     
    9888 O           89.9930   104.1720     3.0720 O             1 RES     
    9889 Si          75.0340   132.0940     8.5620 Si            1 RES     
    9890 O           93.6290   133.2150     5.0040 O             1 RES     
    9891 Si          61.3430   141.5240     4.6710 Si            1 RES     
    9892 Si          77.0130   113.1390     8.3330 Si            1 RES     
    9893 Si          98.9600   113.6160     4.9470 Si            1 RES     
    9894 O           76.9220   129.1920     9.9540 O             1 RES     
    9895 Si          56.3490   126.5680     6.4490 Si            1 RES     
    9896 O           76.2180   103.1580    10.9840 O             1 RES     
    9897 O           83.2120   116.3800     9.3320 O             1 RES     
    9898 OS          56.4260   134.7250    12.1420 OS            1 RES     
    9899 O           69.1830   148.4110     2.8480 O             1 RES     
    9900 Si          52.8540   146.5740     8.6460 Si            1 RES     
    9901 O           90.5630   135.5950     5.7950 O             1 RES     
    9902 O           83.2630   110.6490     7.6910 O             1 RES     
    9903 O           94.8170   149.4930     6.4370 O             1 RES     
    9904 O           65.8050   100.2400    11.7960 O             1 RES     
    9905 Si          79.1690   140.2680     6.9740 Si            1 RES     
    9906 O           74.2300   132.0940     9.9360 O             1 RES     
    9907 OS          86.0060   114.0500    12.9430 OS            1 RES     
    9908 Si          54.1400   131.8930    12.2360 Si            1 RES     
    9909 O           63.9600   135.7890    11.8600 O             1 RES     
    9910 O           60.1560   117.0980     6.7790 O             1 RES     
    9911 O           81.4100   138.4720    11.0010 O             1 RES     
    9912 O           66.3110   109.1870    12.1930 O             1 RES     
    9913 O           99.7160   106.1130    11.9960 O             1 RES     
    9914 Si          96.2190   106.7850     6.0930 Si            1 RES     
    9915 O           99.4500   108.6740    12.1600 O             1 RES     
    9916 O           50.5590   124.8310     9.4250 O             1 RES     
    9917 O           81.0190   112.8100     4.2520 O             1 RES     
    9918 O           92.5120   113.8110     3.3200 O             1 RES     
    9919 O           94.9820   135.0040     3.9540 O             1 RES     
    9920 Si          97.8900   140.3320     9.3920 Si            1 RES     
    9921 OS          90.7650   119.2600    12.4870 OS            1 RES     
    9922 O           99.3310   134.6780     8.0710 O             1 RES     
    9923 O           56.5610   109.2230     3.8240 O             1 RES     
    9924 O           84.6850   112.5290    11.3780 O             1 RES     
    9925 Si          74.1050   139.4900    10.4800 Si            1 RES     
    9926 O           83.2570   100.2650     5.6660 O             1 RES     
    9927 O           72.7900   109.8900     7.1890 O             1 RES     
    9928 O           82.6950   135.6060     6.7950 O             1 RES     
    9929 OS          55.9340   128.2390    12.2320 OS            1 RES     
    9930 O           79.9530   115.9870     4.5410 O             1 RES     
    9931 Si          95.8740   113.8780     8.0790 Si            1 RES     
    9932 O           93.1760   124.2670    13.5710 O             1 RES     
    9933 O           84.1640   117.8210    10.9570 O             1 RES     
    9934 Si          99.1160   120.2060    11.9690 Si            1 RES     
    9935 O           65.7400   110.8380     8.1330 O             1 RES     
    9936 Si          55.7440   146.3750     9.5310 Si            1 RES     
    9937 O           88.2740   124.3050    10.1730 O             1 RES     
    9938 O           93.1520   101.7600     6.8610 O             1 RES     
    9939 O           74.4440   116.8930     9.2070 O             1 RES     
    9940 Si          97.1230   144.1060     8.0430 Si            1 RES     
    9941 Si          82.3110   113.8020     4.0170 Si            1 RES     
    9942 O           77.0840   100.2090     8.7460 O             1 RES     
    9943 Si          92.5260   124.7440    12.2770 Si            1 RES     
    9944 O           98.5480   109.5350     6.5140 O             1 RES     
    9945 O           82.0830   105.2400     9.5810 O             1 RES     
    9946 Si          80.7770   106.9750     6.3810 Si            1 RES     
    9947 O           82.6560   117.3460     3.5770 O             1 RES     
    9948 Si          72.9830   146.9500     5.2330 Si            1 RES     
    9949 Si          60.7820   122.8880     7.5800 Si            1 RES     
    9950 O           87.9150   135.4680     2.4360 O             1 RES     
    9951 Si          78.5620   110.2560     3.2980 Si            1 RES     
    9952 O           89.5970   108.4610     6.8880 O             1 RES     
    9953 OS          78.0860   127.0470    12.8440 OS            1 RES     
    9954 Si          62.4540   100.0520     9.2110 Si            1 RES     
    9955 O           96.1330   118.2330    11.5320 O             1 RES     
    9956 O           75.1730   109.3400     6.4250 O             1 RES     
    9957 O           83.3330   144.0330    10.0310 O             1 RES     
    9958 O           91.8390   124.0760     5.2260 O             1 RES     
    9959 Si          87.3600   117.2670     7.9960 Si            1 RES     
    9960 Si          78.2610   128.7300     5.8670 Si            1 RES     
    9961 Si          80.2820   108.1480    12.0040 Si            1 RES     
    9962 O           53.8730   102.3210     7.7110 O             1 RES     
    9963 O           59.8770   149.4910    12.5530 O             1 RES     
    9964 O           64.0220   110.2330    11.5570 O             1 RES     
    9965 Si          72.5800   113.5060     8.3100 Si            1 RES     
    9966 O           99.1180   101.8730     9.3660 O             1 RES     
    9967 Si          98.9490   114.0960     8.0240 Si            1 RES     
    9968 Si          96.8790   103.8960     6.8860 Si            1 RES     
    9969 O           85.4650   132.8620     6.0240 O             1 RES     
    9970 O           77.1510   137.9040     8.7450 O             1 RES     
    9971 Si          67.7620   123.1290     3.9820 Si            1 RES     
    9972 O           76.4320   117.0710     7.9550 O             1 RES     
    9973 OS          73.7870   128.9780    13.9750 OS            1 RES     
    9974 O           64.9030   122.0870     6.1110 O             1 RES     
    9975 O           66.5420   143.3890     8.1150 O             1 RES     
    9976 O           50.9190   122.9880     4.2150 O             1 RES     
    9977 Si          67.7200   113.2740     4.9340 Si            1 RES     
    9978 O           55.1420   142.4580     8.9610 O             1 RES     
    9979 O           84.5830   108.8080     5.8920 O             1 RES     
    9980 O           50.6930   122.6550     1.5560 O             1 RES     
    9981 O           77.9120   144.4110     6.9660 O             1 RES     
    9982 Si          98.7060   112.1020    12.1750 Si            1 RES     
    9983 O           90.0080   104.3710    11.6840 O             1 RES     
    9984 O           68.3840   114.6960     5.1130 O             1 RES     
    9985 O           55.2630   146.3220    11.0400 O             1 RES     
    9986 O           97.8390   121.1070     5.3680 O             1 RES     
    9987 Si          76.3970   115.0080    12.4620 Si            1 RES     
    9988 O           92.3170   126.3140     6.2530 O             1 RES     
    9989 O           75.3350   107.2390    10.7060 O             1 RES     
    9990 Si          81.4810   126.0880     8.1040 Si            1 RES     
    9991 O           99.2420   136.2610     5.9950 O             1 RES     
    9992 O           96.9280   102.4810     9.7930 O             1 RES     
    9993 O           86.5390   130.8970     7.4160 O             1 RES     
    9994 O           82.5680   121.7720     6.0700 O             1 RES     
    9995 O           51.2920   119.6120     8.2810 O             1 RES     
    9996 O           74.1240   112.2340     5.0580 O             1 RES     
    9997 Si          53.8400   103.8590     8.0030 Si            1 RES     
    9998 Si          52.7330   107.5870     9.8720 Si            1 RES     
    9999 O           57.5060   125.9090    11.4880 O             1 RES     
   10000 Si          58.4160   124.7610     7.8710 Si            1 RES     
   10001 OS          51.2370   116.9980    13.2580 OS            1 RES     
   10002 O           64.4070   102.7210     7.7180 O             1 RES     
   10003 O           75.0570   140.4720    11.2770 O             1 RES     
   10004 O           71.3450   131.9200     4.4470 O             1 RES     
   10005 Si          61.9350   139.3810     9.6200 Si            1 RES     
   10006 Si          62.9040   102.3990     7.3500 Si            1 RES     
   10007 O           84.6530   104.1580     4.0910 O             1 RES     
   10008 Si          70.6580   132.5660     5.7020 Si            1 RES     
   10009 O           59.9550   106.7670    10.5320 O             1 RES     
   10010 O           56.3270   149.7210     5.6860 O             1 RES     
   10011 O           78.0230   123.1170     4.3880 O             1 RES     
   10012 Si          63.5940   101.3770     4.4050 Si            1 RES     
   10013 O           76.0460   112.7870     7.0520 O             1 RES     
   10014 Si          58.1330   139.0510    11.0320 Si            1 RES     
   10015 O           79.3400   100.0210     9.9030 O             1 RES     
   10016 OS          70.6290   119.5290    12.8240 OS            1 RES     
   10017 O           96.3110   116.6070     5.0460 O             1 RES     
   10018 O           85.1690   109.0720     8.2150 O             1 RES     
   10019 O           72.7640   136.2150    10.5800 O             1 RES     
   10020 O           71.7240   104.2780    11.3080 O             1 RES     
   10021 O           80.1630   119.2540     8.8420 O             1 RES     
   10022 Si          65.8320   117.6140    10.7090 Si            1 RES     
   10023 O           99.4760   139.6740     5.8810 O             1 RES     
   10024 O           67.5210   113.0590     3.3260 O             1 RES     
   10025 Si          63.2090   143.8680     5.5150 Si            1 RES     
   10026 O           86.7560   128.3420     3.2740 O             1 RES     
   10027 O           50.1930   108.2110     7.5440 O             1 RES     
   10028 O           90.9160   108.9220     9.0310 O             1 RES     
   10029 Si          85.5870   148.5000    12.5270 Si            1 RES     
   10030 OS          82.5230   130.9610    12.8910 OS            1 RES     
   10031 Si          76.3850   130.8540     4.7940 Si            1 RES     
   10032 Si          71.2500   100.8260    12.5180 Si            1 RES     
   10033 O           77.9370   128.7950     7.4510 O             1 RES     
   10034 Si          82.3110   101.7010    11.9900 Si            1 RES     
   10035 O           70.8080   103.1280     6.0350 O             1 RES     
   10036 O           90.3960   119.4270    10.0400 O             1 RES     
   10037 O           58.1620   144.6540     3.9810 O             1 RES     
   10038 O           81.2400   147.1840     7.4300 O             1 RES     
   10039 O           73.7120   102.8520    10.9510 O             1 RES     
   10040 Si          71.9530   149.8670     5.1650 Si            1 RES     
   10041 O           78.4080   132.9060    12.4150 O             1 RES     
   10042 Si          52.6000   139.6720    10.1250 Si            1 RES     
   10043 Si          64.2540   120.1500     9.5970 Si            1 RES     
   10044 Si          83.7110   111.3420    11.5940 Si            1 RES     
   10045 O           52.3200   136.0940    10.2110 O             1 RES     
   10046 Si          83.6340   136.2480     7.9020 Si            1 RES     
   10047 O           74.1490   143.2310    10.0890 O             1 RES     
   10048 O           93.1390   128.5830    10.8060 O             1 RES     
   10049 O           97.2410   105.9820    11.9870 O             1 RES     
   10050 Si          63.1380   110.7930    10.3950 Si            1 RES     
   10051 O           67.1380   133.0670    11.5390 O             1 RES     
   10052 Si          76.4910   129.8150    11.3490 Si            1 RES     
   10053 O           68.5480   112.0030     5.4170 O             1 RES     
   10054 O           81.5450   135.9710     4.5650 O             1 RES     
   10055 Si          50.7740   147.0520     3.7350 Si            1 RES     
   10056 O           52.5520   107.5940     3.3250 O             1 RES     
   10057 Si          95.9920   132.1560     8.3110 Si            1 RES     
   10058 O           94.3380   146.0900     7.4270 O             1 RES     
   10059 Si          93.0130   129.5670     5.5960 Si            1 RES     
   10060 Si          93.2570   104.0900    10.1390 Si            1 RES     
   10061 Si          77.4220   103.6870    10.1520 Si            1 RES     
   10062 O           70.0630   139.6790     1.9350 O             1 RES     
   10063 O           67.8060   100.4220     4.2120 O             1 RES     
   10064 O           88.2740   106.0910    11.2360 O             1 RES     
   10065 O           54.5930   139.7580     5.1360 O             1 RES     
   10066 Si          78.9100   101.9180     6.1170 Si            1 RES     
   10067 O           61.7560   106.7500     4.0410 O             1 RES     
   10068 Si          74.7800   137.9610     5.9250 Si            1 RES     
   10069 O           59.0370   108.2650     8.6630 O             1 RES     
   10070 O           74.0770   112.4170     2.5300 O             1 RES     
   10071 O           87.7560   132.9340     2.4400 O             1 RES     
   10072 OS          54.5950   149.1400    14.5170 OS            1 RES     
   10073 O           74.6140   121.0140    11.8510 O             1 RES     
   10074 O           72.9150   125.2500     2.6540 O             1 RES     
   10075 O           60.7970   147.4620     6.5500 O             1 RES     
   10076 Si          71.8370   141.1810     9.1520 Si            1 RES     
   10077 O           59.1480   107.9230     3.5290 O             1 RES     
   10078 Si          90.5370   109.9940    10.0790 Si            1 RES     
   10079 O           55.7350   105.3190    11.2190 O             1 RES     
   10080 O           51.9570   138.9090     4.9630 O             1 RES     
   10081 O           89.2870   140.1540    10.0700 O             1 RES     
   10082 O           53.8470   117.0590     4.3490 O             1 RES     
   10083 O           67.8950   141.6230     7.1700 O             1 RES     
   10084 Si          91.1600   132.1080     9.2800 Si            1 RES     
   10085 Si          57.5300   118.7090     4.5500 Si            1 RES     
   10086 O           89.2430   110.7900     9.7430 O             1 RES     
   10087 O           88.8950   114.7690     9.3090 O             1 RES     
   10088 Si          82.5590   137.3940    10.4550 Si            1 RES     
   10089 O           86.1270   146.5280     6.8370 O             1 RES     
   10090 O           85.6710   107.5290     3.6010 O             1 RES     
   10091 Si          91.2410   105.5420     6.0670 Si            1 RES     
   10092 O           94.3530   147.2570     5.2990 O             1 RES     
   10093 O           71.0960   111.5510    11.3260 O             1 RES     
   10094 O           86.3140   147.7270     2.8030 O             1 RES     
   10095 Si          53.2690   107.8770     4.6890 Si            1 RES     
   10096 Si          94.3260   132.8360    10.9620 Si            1 RES     
   10097 O           55.9080   144.4830     4.7470 O             1 RES     
   10098 O           87.8670   148.5510     6.9750 O             1 RES     
   10099 Si          97.7890   129.7170     7.8140 Si            1 RES     
   10100 O           60.5360   145.8010    10.8160 O             1 RES     
   10101 O           80.0420   106.9110     3.1560 O             1 RES     
   10102 O           79.3280   125.3040     5.3200 O             1 RES     
   10103 O           52.6590   104.1220     4.7300 O             1 RES     
   10104 O           53.6920   139.0040     2.9030 O             1 RES     
   10105 O           96.0630   107.6860    10.0550 O             1 RES     
   10106 Si          92.8980   139.7550    11.7930 Si            1 RES     
   10107 Si          94.6300   132.1160     5.5620 Si            1 RES     
   10108 Si          56.6730   128.6420     4.1830 Si            1 RES     
   10109 O           85.2920   112.1580     4.2350 O             1 RES     
   10110 O           73.1660   115.8090     4.5290 O             1 RES     
   10111 OS          86.2370   133.6100    13.1820 OS            1 RES     
   10112 O           57.7920   119.5000     3.2450 O             1 RES     
   10113 Si          89.0220   139.1650     3.7950 Si            1 RES     
   10114 O           88.6900   139.3440     5.2950 O             1 RES     
   10115 Si          70.5840   146.4850     9.0350 Si            1 RES     
   10116 Si          76.1220   106.8770     3.7100 Si            1 RES     
   10117 O           70.6050   127.2480    10.9330 O             1 RES     
   10118 O           92.4750   143.0040     4.0240 O             1 RES     
   10119 O           98.6060   116.6050     3.7510 O             1 RES     
   10120 OS          81.7590   128.7610    13.1040 OS            1 RES     
   10121 O           67.4440   110.2380     6.5740 O             1 RES     
   10122 O           79.8050   109.3610     3.5760 O             1 RES     
   10123 O           74.9300   102.2730     5.9240 O             1 RES     
   10124 O           95.0480   149.2860     3.9300 O             1 RES     
   10125 O           98.9510   141.4400     9.0160 O             1 RES     
   10126 Si          73.2200   144.8880     8.7860 Si            1 RES     
   10127 O           96.5110   130.6330     8.0910 O             1 RES     
   10128 Si          52.9310   120.3950    11.4460 Si            1 RES     
   10129 O           87.0440   136.4570     7.0990 O             1 RES     
   10130 OS          73.2340   145.3400    13.3730 OS            1 RES     
   10131 Si          54.5790   117.8720    12.0130 Si            1 RES     
   10132 O           81.9420   131.6430     9.0490 O             1 RES     
   10133 Si          70.8980   121.6300     7.9010 Si            1 RES     
   10134 O           70.6810   124.5750    10.5290 O             1 RES     
   10135 Si          99.8680   139.7510    11.6200 Si            1 RES     
   10136 O           96.8890   141.2540    10.2250 O             1 RES     
   10137 Si          91.9310   129.5470    10.6970 Si            1 RES     
   10138 O           50.9740   105.9620     6.5700 O             1 RES     
   10139 O           65.6560   134.3010     8.0550 O             1 RES     
   10140 O           61.1760   149.7570    10.1540 O             1 RES     
   10141 O           66.9850   120.3870     6.9930 O             1 RES     
   10142 O           71.1540   122.3680     9.2110 O             1 RES     
   10143 Si          57.0370   104.9610    12.2210 Si            1 RES     
   10144 O           59.8820   135.6720     2.0770 O             1 RES     
   10145 O           52.4470   100.3440    10.6000 O             1 RES     
   10146 Si          84.4530   145.6960    12.7250 Si            1 RES     
   10147 O           85.4760   100.9680    10.6270 O             1 RES     
   10148 O           88.3100   116.9160     6.8450 O             1 RES     
   10149 Si          99.5990   110.9130     3.3680 Si            1 RES     
   10150 O           80.3820   140.4390    11.8390 O             1 RES     
   10151 O           52.3780   148.0490     9.1800 O             1 RES     
   10152 O           61.9200   135.5030     8.8340 O             1 RES     
   10153 Si          61.6610   142.2820    11.3350 Si            1 RES     
   10154 O           66.2840   102.2140     9.1100 O             1 RES     
   10155 O           78.8800   123.1380     6.8910 O             1 RES     
   10156 Si          65.1530   108.2330     3.0780 Si            1 RES     
   10157 O           87.6080   116.6840     3.1480 O             1 RES     
   10158 O           66.5280   123.4710     4.8550 O             1 RES     
   10159 O           52.0400   119.3430    10.6480 O             1 RES     
   10160 O           76.6770   132.2300     8.4070 O             1 RES     
   10161 O           84.8490   145.1810     8.5100 O             1 RES     
   10162 O           94.2890   139.3050    11.3820 O             1 RES     
   10163 O           83.8490   120.4930    11.2560 O             1 RES     
   10164 O           92.6690   141.1440    11.1220 O             1 RES     
   10165 O           51.5370   126.3480    11.4820 O             1 RES     
   10166 O           56.7110   137.0250     8.4600 O             1 RES     
   10167 O           90.4520   126.0420     4.4160 O             1 RES     
   10168 Si          51.4310   129.3570     4.3530 Si            1 RES     
   10169 Si          79.4410   144.1440     6.3630 Si            1 RES     
   10170 Si          84.5620   137.2000    12.6940 Si            1 RES     
   10171 O           65.4150   117.9690     3.7480 O             1 RES     
   10172 O           98.6890   129.9460     9.1440 O             1 RES     
   10173 Si          69.7040   135.1190     4.3010 Si            1 RES     
   10174 Si          59.2350   140.2780     8.5050 Si            1 RES     
   10175 O           60.1700   122.6780     3.4770 O             1 RES     
   10176 O           78.0260   148.4980     3.9550 O             1 RES     
   10177 Si          60.2590   107.0960     4.3300 Si            1 RES     
   10178 Si          60.7680   100.3680     4.1590 Si            1 RES     
   10179 O           57.4330   133.4430    10.3300 O             1 RES     
   10180 O           87.5930   112.8270     9.0240 O             1 RES     
   10181 O           89.2760   149.7930     5.2960 O             1 RES     
   10182 Si          90.4220   122.1860     8.0240 Si            1 RES     
   10183 O           91.5440   130.2860     5.8490 O             1 RES     
   10184 Si          65.1180   123.4980     5.5180 Si            1 RES     
   10185 O           87.2250   144.6220     8.1630 O             1 RES     
   10186 Si          87.4620   129.9450     6.6480 Si            1 RES     
   10187 O           78.2940   102.3970     9.6980 O             1 RES     
   10188 Si          99.9060   116.3460     2.8790 Si            1 RES     
   10189 O           52.1370   121.5170    12.1680 O             1 RES     
   10190 O           93.6060   134.1830    10.4770 O             1 RES     
   10191 Si          90.0440   122.8680     2.7750 Si            1 RES     
   10192 Si          80.3540   149.4740    11.0060 Si            1 RES     
   10193 O           60.4660   128.0500     3.3230 O             1 RES     
   10194 O           93.5030   129.4090     4.0760 O             1 RES     
   10195 O           62.3350   134.3870    10.9070 O             1 RES     
   10196 Si          80.2830   135.4870    10.0540 Si            1 RES     
   10197 O           51.5180   107.7760    10.8100 O             1 RES     
   10198 OS          63.9350   148.6380    12.4890 OS            1 RES     
   10199 O           61.8470   115.4370     5.8870 O             1 RES     
   10200 Si          86.3330   141.9210    10.7280 Si            1 RES     
   10201 Si          85.4250   149.3560     9.7630 Si            1 RES     
   10202 O           70.1260   110.3950     6.6900 O             1 RES     
   10203 O           92.1540   103.4420    10.9540 O             1 RES     
   10204 OS          98.7590   104.2680    13.4230 OS            1 RES     
   10205 O           84.3070   145.7400    11.1810 O             1 RES     
   10206 Si          78.9580   119.7090    12.6810 Si            1 RES     
   10207 O           63.5450   102.5430     3.3690 O             1 RES     
   10208 Si          60.8420   126.5980     2.8430 Si            1 RES     
   10209 Si          70.2770   123.7320     5.6520 Si            1 RES     
   10210 Si          64.4350   138.4700     8.2500 Si            1 RES     
   10211 O           64.3810   138.4590    11.4540 O             1 RES     
   10212 Si          90.9010   107.9910    12.3730 Si            1 RES     
   10213 Si          54.0140   112.4090     2.8490 Si            1 RES     
   10214 O           96.4900   105.3760     6.6270 O             1 RES     
   10215 O           93.7220   105.6280     2.8890 O             1 RES     
   10216 OS          59.7740   108.0690    12.8280 OS            1 RES     
   10217 O           61.2780   122.8880     6.1010 O             1 RES     
   10218 Si          84.9060   119.1140     7.6960 Si            1 RES     
   10219 O           64.3030   107.0030     3.5270 O             1 RES     
   10220 O           57.6360   104.7540     3.4860 O             1 RES     
   10221 O           51.1770   136.5940     7.9670 O             1 RES     
   10222 Si          91.8900   136.6090     5.6030 Si            1 RES     
   10223 Si          58.3270   124.6850    10.8860 Si            1 RES     
   10224 Si          98.5580   137.0190     4.7550 Si            1 RES     
   10225 O           68.0280   124.1480     2.7820 O             1 RES     
   10226 O           88.2120   140.3700     3.1680 O             1 RES     
   10227 O           63.2290   118.9340     4.1960 O             1 RES     
   10228 O           51.5240   142.1600     5.3490 O             1 RES     
   10229 O           84.2080   141.4020     2.9950 O             1 RES     
   10230 O           59.9340   130.2440     7.3410 O             1 RES     
   10231 O           52.0630   115.5610     2.9380 O             1 RES     
   10232 Si          77.0240   128.3330     8.6310 Si            1 RES     
   10233 O           85.8430   105.7330    11.5410 O             1 RES     
   10234 O           77.5350   102.5990     5.9240 O             1 RES     
   10235 Si          93.6470   106.3850     4.3100 Si            1 RES     
   10236 O           92.4490   145.0810     5.6010 O             1 RES     
   10237 O           88.6840   134.5900     7.1850 O             1 RES     
   10238 Si          93.7680   126.7680     6.7440 Si            1 RES     
   10239 O           97.2250   126.1170     2.2900 O             1 RES     
   10240 O           54.9090   117.5310    10.4690 O             1 RES     
   10241 O           78.7750   105.2600     1.7050 O             1 RES     
   10242 Si          81.4390   121.9590     5.0050 Si            1 RES     
   10243 Si          71.4930   110.7350     7.5580 Si            1 RES     
   10244 O           63.9710   106.4620     5.8890 O             1 RES     
   10245 O           83.0330   113.1450     8.0570 O             1 RES     
   10246 Si          84.9240   133.4730     4.7240 Si            1 RES     
   10247 OS          76.3210   132.7020    13.5690 OS            1 RES     
   10248 Si          81.5440   141.4570    12.4750 Si            1 RES     
   10249 O           79.3740   143.0310     2.4190 O             1 RES     
   10250 O           75.4890   113.7300    12.0520 O             1 RES     
   10251 Si          91.1940   125.4280     5.6740 Si            1 RES     
   10252 Si          75.0190   133.6200     4.5810 Si            1 RES     
   10253 O           75.8520   137.3180     4.9610 O             1 RES     
   10254 O           76.2680   122.5560     2.5550 O             1 RES     
   10255 O           83.7020   103.5210     8.8710 O             1 RES     
   10256 Si          99.5320   136.2110     7.5480 Si            1 RES     
   10257 O           57.9020   112.8950     5.8120 O             1 RES     
   10258 Si          82.6620   121.5750    11.0900 Si            1 RES     
   10259 Si          91.8410   137.7970     9.8630 Si            1 RES     
   10260 O           74.8970   138.6820     9.4090 O             1 RES     
   10261 O           69.4320   130.9940     8.6450 O             1 RES     
   10262 O           73.0340   106.4600    10.7360 O             1 RES     
   10263 Si          56.1230   121.0220     6.0700 Si            1 RES     
   10264 O           76.2580   107.8970     4.8800 O             1 RES     
   10265 O           74.7020   127.8820     4.0000 O             1 RES     
   10266 O           56.7870   143.4910    11.0880 O             1 RES     
   10267 O           54.7200   126.2960     6.7230 O             1 RES     
   10268 O           87.7030   128.5370     7.3720 O             1 RES     
   10269 O           84.9560   133.9470    11.0150 O             1 RES     
   10270 O           64.4000   121.2030    10.7780 O             1 RES     
   10271 OS          67.2170   124.9120    13.6390 OS            1 RES     
   10272 O           54.4340   146.6510     3.6400 O             1 RES     
   10273 O           80.7400   141.4030     3.7310 O             1 RES     
   10274 O           54.3840   113.3880    11.0640 O             1 RES     
   10275 O           72.1030   111.6210    13.7130 O             1 RES     
   10276 Si          81.4340   147.1230     9.0250 Si            1 RES     
   10277 OS          86.8030   142.6740    12.0850 OS            1 RES     
   10278 Si          72.1270   135.1590     9.6950 Si            1 RES     
   10279 Si          54.3300   141.3140     8.1820 Si            1 RES     
   10280 O           90.7490   128.5730    10.2950 O             1 RES     
   10281 O           82.6930   140.5850     4.9870 O             1 RES     
   10282 O           81.9860   103.9110     4.1460 O             1 RES     
   10283 O           95.5510   109.8530     8.1410 O             1 RES     
   10284 Si          80.2600   126.5190     5.2240 Si            1 RES     
   10285 Si          80.8330   116.8930    12.4020 Si            1 RES     
   10286 O           83.2690   103.5440     1.8200 O             1 RES     
   10287 Si          83.1600   128.3150     9.5480 Si            1 RES     
   10288 O           94.0770   147.9320    12.2840 O             1 RES     
   10289 O           97.5480   138.0060     5.6180 O             1 RES     
   10290 Si          87.6450   127.2860     8.3550 Si            1 RES     
   10291 O           77.5640   124.5850    13.4620 O             1 RES     
   10292 O           57.1940   124.1080     3.5390 O             1 RES     
   10293 Si          66.4750   100.4530     5.0370 Si            1 RES     
   10294 OS          69.0150   133.9640    12.9490 OS            1 RES     
   10295 Si          63.7360   146.8480     4.7960 Si            1 RES     
   10296 O           95.7160   103.1720     7.7260 O             1 RES     
   10297 O           97.2460   143.8840     6.4930 O             1 RES     
   10298 O           83.8920   107.0090    12.1530 O             1 RES     
   10299 Si          89.0750   105.0900     3.8950 Si            1 RES     
   10300 O           57.5480   121.7370     2.2120 O             1 RES     
   10301 O           88.7150   111.9880     2.8450 O             1 RES     
   10302 O           67.3960   145.5620     7.7220 O             1 RES     
   10303 Si          75.4570   100.0150     8.9280 Si            1 RES     
   10304 O           76.8410   131.3830    11.3970 O             1 RES     
   10305 Si          56.6870   128.7520     8.6050 Si            1 RES     
   10306 O           72.9350   108.4130     3.4420 O             1 RES     
   10307 O           89.6580   123.4910     8.2180 O             1 RES     
   10308 O           90.5220   113.4140     7.5850 O             1 RES     
   10309 O           62.5910   140.7200     5.2870 O             1 RES     
   10310 OS          79.9960   121.1650    13.4540 OS            1 RES     
   10311 Si          91.0860   112.8460     6.2010 Si            1 RES     
   10312 Si          66.5360   142.3980     6.8450 Si            1 RES     
   10313 O           55.2850   129.5070     8.5800 O             1 RES     
   10314 Si          95.8050   126.2980     2.8180 Si            1 RES     
   10315 O           63.0470   146.5060     7.9250 O             1 RES     
   10316 O           50.7180   149.8240     8.9760 O             1 RES     
   10317 Si          61.1980   135.2150    10.2120 Si            1 RES     
   10318 O           66.1250   127.2630     7.1250 O             1 RES     
   10319 O           92.0090   108.9310     6.7160 O             1 RES     
   10320 O           79.4600   107.4260     7.0500 O             1 RES     
   10321 Si          74.4940   116.1220     5.1530 Si            1 RES     
   10322 O           64.2950   124.3120     4.4240 O             1 RES     
   10323 O           79.1570   132.0700     6.3030 O             1 RES     
   10324 O           66.2070   142.0650     2.8460 O             1 RES     
   10325 Si          59.1930   102.1070     6.1930 Si            1 RES     
   10326 O           72.3780   110.9030     3.1270 O             1 RES     
   10327 O           79.5450   127.8690     5.5900 O             1 RES     
   10328 Si          59.7130   135.8030     6.0890 Si            1 RES     
   10329 O           66.2530   139.6080     2.5560 O             1 RES     
   10330 O           86.1380   134.2730     4.0100 O             1 RES     
   10331 O           88.8820   142.7470     2.5550 O             1 RES     
   10332 O           91.4980   104.0980     6.5750 O             1 RES     
   10333 O           94.7810   141.7280     3.7870 O             1 RES     
   10334 Si          71.5530   137.3940     5.0980 Si            1 RES     
   10335 O           65.2540   146.7190     5.0130 O             1 RES     
   10336 Si          98.3050   108.8110     5.0710 Si            1 RES     
   10337 Si          69.3380   136.4260     9.9850 Si            1 RES     
   10338 O           97.7060   108.7760     8.5610 O             1 RES     
   10339 O           66.0610   106.3310     7.6540 O             1 RES     
   10340 O           98.3560   110.4680     2.3570 O             1 RES     
   10341 Si          57.5970   115.8860     3.3550 Si            1 RES     
   10342 Si          83.3320   142.4600    10.1280 Si            1 RES     
   10343 Si          96.0100   136.0040     3.3990 Si            1 RES     
   10344 O           96.9380   140.5590     4.9240 O             1 RES     
   10345 Si          64.4050   118.2450     4.9420 Si            1 RES     
   10346 O           96.1040   111.4080     5.6420 O             1 RES     
   10347 O           77.3830   108.8200     6.7370 O             1 RES     
   10348 O           81.8700   115.0560     3.2500 O             1 RES     
   10349 Si          65.9070   110.0890     6.7220 Si            1 RES     
   10350 O           60.8390   115.5770    10.8400 O             1 RES     
   10351 Si          53.8790   123.8550     9.3030 Si            1 RES     
   10352 O           60.9570   121.5610     8.4690 O             1 RES     
   10353 Si          57.0870   127.4220    11.3940 Si            1 RES     
   10354 O           92.1170   120.9600    11.0440 O             1 RES     
   10355 O           91.2090   106.6220     7.2350 O             1 RES     
   10356 Si          53.2300   116.7320     5.8630 Si            1 RES     
   10357 O           75.0490   141.8660     6.4780 O             1 RES     
   10358 Si          51.2730   144.7730    10.5840 Si            1 RES     
   10359 O           52.6120   146.4420     7.0790 O             1 RES     
   10360 O           63.6390   149.8840    10.2120 O             1 RES     
   10361 O           80.6700   134.1810     9.2810 O             1 RES     
   10362 Si          91.1270   142.6480     8.1450 Si            1 RES     
   10363 O           90.0150   106.7220    12.7820 O             1 RES     
   10364 OS          96.5220   114.8410    13.6800 OS            1 RES     
   10365 O           69.5030   137.4470    11.1780 O             1 RES     
   10366 O           90.1420   118.5980     7.4890 O             1 RES     
   10367 O           56.4810   145.2430    12.8770 O             1 RES     
   10368 O           53.6000   144.9390     4.7370 O             1 RES     
   10369 O           90.1310   132.9500    10.1810 O             1 RES     
   10370 Si          76.6890   116.7210     3.0580 Si            1 RES     
   10371 O           73.2980   116.4810    11.5780 O             1 RES     
   10372 O           57.4210   133.3580     4.5400 O             1 RES     
   10373 O           97.3600   132.4420     2.6270 O             1 RES     
   10374 O           88.3920   145.2230     3.4960 O             1 RES     
   10375 O           52.3880   118.0540     6.4230 O             1 RES     
   10376 O           75.3700   136.4550     2.4690 O             1 RES     
   10377 O           83.4470   113.1420     3.1830 O             1 RES     
   10378 O           74.0410   123.1650    13.5520 O             1 RES     
   10379 O           86.7380   134.8560     9.1230 O             1 RES     
   10380 O           93.6660   135.3340     8.4330 O             1 RES     
   10381 O           89.8860   102.2040    10.2160 O             1 RES     
   10382 OS          99.6020   112.7850    13.2680 OS            1 RES     
   10383 O           83.9400   124.2910     2.7330 O             1 RES     
   10384 O           61.1720   118.9820     5.3790 O             1 RES     
   10385 O           64.0480   109.3350     3.0620 O             1 RES     
   10386 O           92.7380   134.8950     2.7400 O             1 RES     
   10387 O           95.4570   130.3800     2.5570 O             1 RES     
   10388 O           84.2480   135.0790     8.7640 O             1 RES     
   10389 O           64.3800   126.3200    10.8220 O             1 RES     
   10390 Si          55.3480   149.4170    12.7330 Si            1 RES     
   10391 O           91.5300   111.3990     6.3670 O             1 RES     
   10392 Si          61.4050   122.6560     4.4670 Si            1 RES     
   10393 Si          55.4440   146.3220    12.6150 Si            1 RES     
   10394 O           97.9650   103.8760     8.0230 O             1 RES     
   10395 O           72.6100   124.2770     9.1200 O             1 RES     
   10396 O           58.7410   103.2920     5.2770 O             1 RES     
   10397 O           93.1120   113.3500    10.8740 O             1 RES     
   10398 O           90.3440   148.4660     7.4730 O             1 RES     
   10399 OS          53.4810   104.3130    11.9250 OS            1 RES     
   10400 OS          65.4450   137.0720    13.3770 OS            1 RES     
   10401 O           80.5520   132.6320    11.0970 O             1 RES     
   10402 O           64.9040   113.0700     7.7000 O             1 RES     
   10403 Si          93.4640   134.5120     4.1050 Si            1 RES     
   10404 O           87.2750   141.3190     6.3480 O             1 RES     
   10405 O           66.5790   108.1120     3.7590 O             1 RES     
   10406 O           94.9030   117.5790     9.8250 O             1 RES     
   10407 O           92.4170   123.6620    11.1840 O             1 RES     
   10408 Si          61.8210   119.6120     4.0960 Si            1 RES     
   10409 O           54.2290   104.2180     9.5200 O             1 RES     
   10410 O           61.9240   103.5670     7.9060 O             1 RES     
   10411 Si          73.2640   128.3340     4.5650 Si            1 RES     
   10412 Si          60.6550   115.6260     6.9070 Si            1 RES     
   10413 Si          66.6240   147.4700     4.8540 Si            1 RES     
   10414 O           92.4230   143.5150    11.6360 O             1 RES     
   10415 O           94.6300   113.0840     4.7050 O             1 RES     
   10416 O           74.8870   123.7760     8.7800 O             1 RES     
   10417 Si          94.1340   114.4970    10.5390 Si            1 RES     
   10418 O           51.7890   111.3740     9.7400 O             1 RES     
   10419 Si          86.3550   148.1240     7.1680 Si            1 RES     
   10420 O           60.2310   149.0210     4.5630 O             1 RES     
   10421 O           78.3610   124.1750     9.0730 O             1 RES     
   10422 O           70.6590   143.6390     4.2780 O             1 RES     
   10423 Si          69.3750   141.1540     7.3020 Si            1 RES     
   10424 O           80.9560   111.5940     8.6360 O             1 RES     
   10425 OS          68.8340   109.1030    13.2000 OS            1 RES     
   10426 OS          68.5960   117.9340    13.0090 OS            1 RES     
   10427 O           96.4730   101.5150     3.5410 O             1 RES     
   10428 O           62.2390   125.8070     3.0760 O             1 RES     
   10429 O           84.3740   121.7230     2.4900 O             1 RES     
   10430 O           57.1170   149.6020     8.2970 O             1 RES     
   10431 O           57.2630   140.2660     5.4760 O             1 RES     
   10432 Si          55.9150   139.6130     6.0160 Si            1 RES     
   10433 Si          59.3260   130.2780     8.7720 Si            1 RES     
   10434 O           71.8550   112.2470     7.6560 O             1 RES     
   10435 Si          82.0220   145.5090     3.4310 Si            1 RES     
   10436 Si          76.3280   136.2830     3.8650 Si            1 RES     
   10437 Si          79.2960   149.2110     4.6370 Si            1 RES     
   10438 Si          59.8470   149.8200    11.0250 Si            1 RES     
   10439 O           73.2350   137.5940     5.5630 O             1 RES     
   10440 O           54.4610   104.4630     6.6550 O             1 RES     
   10441 O           87.6840   104.5540     4.2990 O             1 RES     
   10442 O           58.1540   143.7040     6.2390 O             1 RES     
   10443 O           66.5850   103.8740     7.1990 O             1 RES     
   10444 Si          93.4070   114.0150     4.5790 Si            1 RES     
   10445 O           79.2980   138.8270     7.6790 O             1 RES     
   10446 O           79.3870   121.7350     9.2020 O             1 RES     
   10447 Si          69.1950   149.8120     3.6240 Si            1 RES     
   10448 O           88.6720   138.0910    11.0390 O             1 RES     
   10449 Si          87.7770   135.5230     8.0530 Si            1 RES     
   10450 O           50.8420   123.7000    11.6950 O             1 RES     
   10451 Si          95.3090   146.5390     8.6930 Si            1 RES     
   10452 O           90.1670   132.8790     5.9980 O             1 RES     
   10453 O           99.4920   112.2080     4.3130 O             1 RES     
   10454 Si          93.2470   118.1450     6.8110 Si            1 RES     
   10455 O           51.2610   145.9670     4.7330 O             1 RES     
   10456 O           70.5560   106.5140    11.2540 O             1 RES     
   10457 Si          96.4700   121.9070     5.5860 Si            1 RES     
   10458 O           83.7270   104.7470    11.2180 O             1 RES     
   10459 O           98.7680   139.6940    10.5490 O             1 RES     
   10460 Si          53.4020   101.0840     6.7640 Si            1 RES     
   10461 O           71.3330   101.8710    11.3530 O             1 RES     
   10462 O           85.5060   111.1090     6.4490 O             1 RES     
   10463 O           76.7580   104.1720     8.6430 O             1 RES     
   10464 OS          94.5140   128.1680    12.7980 OS            1 RES     
   10465 O           87.1250   104.6340     6.7400 O             1 RES     
   10466 Si          92.0090   108.7670     3.2600 Si            1 RES     
   10467 Si          96.1000   112.5440     4.5270 Si            1 RES     
   10468 OS          99.5030   140.8540    12.6370 OS            1 RES     
   10469 O           61.7300   111.3630    10.8470 O             1 RES     
   10470 Si          60.5060   103.9990     8.3070 Si            1 RES     
   10471 O           76.4340   142.8610    11.3620 O             1 RES     
   10472 OS          60.2690   120.2770    12.7150 OS            1 RES     
   10473 O           54.0880   106.5780     5.0410 O             1 RES     
   10474 Si          54.7960   145.1350     3.8250 Si            1 RES     
   10475 Si          67.2500   136.7620     5.3500 Si            1 RES     
   10476 O           72.6580   135.0170     8.1920 O             1 RES     
   10477 O           54.7760   111.3850     3.7570 O             1 RES     
   10478 Si          52.1730   130.1660    10.6390 Si            1 RES     
   10479 O           53.1690   111.5260     1.8630 O             1 RES     
   10480 Si          51.5830   119.4170     6.7290 Si            1 RES     
   10481 Si          54.1910   130.4610     4.9740 Si            1 RES     
   10482 O           68.7420   119.2920     3.6040 O             1 RES     
   10483 OS          79.6860   144.8840    11.6080 OS            1 RES     
   10484 Si          71.1900   142.2330     4.8640 Si            1 RES     
   10485 O           80.7800   120.5740     4.9990 O             1 RES     
   10486 O           69.1700   119.3410     6.1340 O             1 RES     
   10487 Si          71.9210   105.8130    11.6850 Si            1 RES     
   10488 O           80.8090   116.9810     1.4340 O             1 RES     
   10489 O           69.2280   134.6030     2.8800 O             1 RES     
   10490 Si          54.1090   105.0000     5.1770 Si            1 RES     
   10491 O           56.3600   118.8940     8.8740 O             1 RES     
   10492 O           56.2940   100.6990     3.4020 O             1 RES     
   10493 O           65.1280   103.2530    11.2180 O             1 RES     
   10494 Si          74.5940   116.9940    10.8350 Si            1 RES     
   10495 Si          62.2190   147.6710     7.2280 Si            1 RES     
   10496 O           87.6340   143.1750     4.6860 O             1 RES     
   10497 OS          90.8040   109.0420    13.7160 OS            1 RES     
   10498 Si          77.3070   145.2360     8.2250 Si            1 RES     
   10499 O           83.9980   122.9060     7.6760 O             1 RES     
   10500 O           95.1190   137.2770     3.0810 O             1 RES     
   10501 O           56.8140   147.4990     9.5180 O             1 RES     
   10502 O           64.2680   143.1000     4.5660 O             1 RES     
   10503 O           91.9410   138.7310    11.1050 O             1 RES     
   10504 O           55.3760   140.2880     7.4140 O             1 RES     
   10505 O           90.1690   143.8500     4.6990 O             1 RES     
   10506 O           77.7100   140.7150     6.5120 O             1 RES     
   10507 O           90.9140   141.0570     8.2180 O             1 RES     
   10508 O           80.0460   140.2740     5.7160 O             1 RES     
   10509 O           67.3190   147.0070     3.5200 O             1 RES     
   10510 Si          82.9580   104.0070    10.1090 Si            1 RES     
   10511 Si          84.8320   134.0840    12.5900 Si            1 RES     
   10512 OS          57.6280   143.2180    13.5850 OS            1 RES     
   10513 Si          97.7210   126.6370     7.6180 Si            1 RES     
   10514 O           80.9160   126.5840     3.7620 O             1 RES     
   10515 O           73.9220   142.3280    12.3240 O             1 RES     
   10516 OS          75.8880   140.5100    13.6960 OS            1 RES     
   10517 O           86.9150   115.8830     8.6820 O             1 RES     
   10518 O           71.1230   147.8380     9.4230 O             1 RES     
   10519 O           94.2260   101.4090     2.5910 O             1 RES     
   10520 O           71.3940   124.2170     4.6260 O             1 RES     
   10521 OS          88.1040   125.3190    12.6240 OS            1 RES     
   10522 Si          82.5640   111.8050     8.6730 Si            1 RES     
   10523 O           83.7820   118.0900     7.4940 O             1 RES     
   10524 O           59.2800   139.5730    11.9060 O             1 RES     
   10525 O           51.9720   101.2120     6.1930 O             1 RES     
   10526 O           96.1200   147.9080     8.9550 O             1 RES     
   10527 O           65.0400   145.0910     8.8960 O             1 RES     
   10528 O           90.8230   125.8370     1.9520 O             1 RES     
   10529 O           55.1570   133.7200     3.2020 O             1 RES     
   10530 Si          93.0790   147.3120    11.1950 Si            1 RES     
   10531 O           71.8820   118.2290     2.1210 O             1 RES     
   10532 O           59.7870   141.1050     4.7360 O             1 RES     
   10533 O           56.1870   110.7460     5.5900 O             1 RES     
   10534 O           84.0590   149.7060     8.3830 O             1 RES     
   10535 O           96.9490   142.9200     4.2110 O             1 RES     
   10536 O           90.5380   139.4770     3.5280 O             1 RES     
   10537 O           75.0980   148.5330     8.5770 O             1 RES     
   10538 Si          83.8420   145.4100     9.7360 Si            1 RES     
   10539 O           51.0700   129.6330     2.7850 O             1 RES     
   10540 O           81.7480   146.3360     4.7500 O             1 RES     
   10541 O           96.7180   143.3970    11.7750 O             1 RES     
   10542 O           95.9950   125.4950     4.1030 O             1 RES     
   10543 Si          74.4620   120.2280     4.2260 Si            1 RES     
   10544 O           51.2180   140.0580    10.7650 O             1 RES     
   10545 O           99.7400   119.9800    10.4620 O             1 RES     
   10546 O           86.5850   107.6310    10.1330 O             1 RES     
   10547 O           82.3760   149.8430     3.1810 O             1 RES     
   10548 OS          79.5430   149.3210    12.4220 OS            1 RES     
   10549 Si          88.2170   148.4220    11.3390 Si            1 RES     
   10550 OS          77.3500   136.5040    12.2680 OS            1 RES     
   10551 O           71.5430   131.5880     9.9880 O             1 RES     
   10552 O           84.2360   127.1980    10.1070 O             1 RES     
   10553 Si          78.9930   105.7800     3.1930 Si            1 RES     
   10554 O           66.7080   112.7920     9.7260 O             1 RES     
   10555 OS          58.3120   128.2320    12.0050 OS            1 RES     
   10556 Si          67.5100   125.8340    12.3960 Si            1 RES     
   10557 O           63.1120   145.4360     5.0930 O             1 RES     
   10558 O           58.6580   138.8890     7.8230 O             1 RES     
   10559 O           75.4570   130.2240     5.8030 O             1 RES     
   10560 OS          65.4610   130.9980    12.0200 OS            1 RES     
   10561 OS          70.9830   117.0100    12.4260 OS            1 RES     
   10562 O           52.5790   123.0990     5.9300 O             1 RES     
   10563 Si          73.6140   120.2550     7.2040 Si            1 RES     
   10564 O           62.8580   128.5260    10.3000 O             1 RES     
   10565 Si          99.4750   131.2930     5.8120 Si            1 RES     
   10566 OS          80.2560   107.0160    13.1400 OS            1 RES     
   10567 O           51.0510   142.4950     2.7780 O             1 RES     
   10568 O           97.2880   139.8280     7.4040 O             1 RES     
   10569 Si          68.5590   146.0310     6.8330 Si            1 RES     
   10570 Si          84.5940   112.1700     2.8700 Si            1 RES     
   10571 Si          72.8780   132.3050    10.6540 Si            1 RES     
   10572 O           90.5280   115.8970     7.9670 O             1 RES     
   10573 O           99.8640   121.4210    12.6100 O             1 RES     
   10574 Si          92.2390   103.0160     7.4680 Si            1 RES     
   10575 OS          53.7080   132.8340    13.4430 OS            1 RES     
   10576 OS          52.5300   134.7780    12.6110 OS            1 RES     
   10577 O           99.6160   116.5430    11.2260 O             1 RES     
   10578 Si          77.6710   125.6370    12.2540 Si            1 RES     
   10579 O           59.4760   125.8230     3.2250 O             1 RES     
   10580 OS          66.1200   118.1080    12.2320 OS            1 RES     
   10581 Si          52.5000   136.8800     8.8330 Si            1 RES     
   10582 O           60.4580   119.5140    10.2270 O             1 RES     
   10583 O           81.5910   100.4320    11.3760 O             1 RES     
   10584 O           73.7620   120.4510     5.6460 O             1 RES     
   10585 Si          82.9600   116.8100     7.8490 Si            1 RES     
   10586 O           95.8420   112.2230     2.9200 O             1 RES     
   10587 Si          82.2490   134.8590     5.3880 Si            1 RES     
   10588 O           93.5730   119.3770     5.9410 O             1 RES     
   10589 O           91.4800   111.2340    10.4330 O             1 RES     
   10590 O           77.1300   119.9590    11.9050 O             1 RES     
   10591 O           93.1120   109.0960     2.1700 O             1 RES     
   10592 O           65.5340   125.4820     8.9350 O             1 RES     
   10593 O           94.5210   117.3100     6.5560 O             1 RES     
   10594 O           63.6740   144.1950     7.0730 O             1 RES     
   10595 OS          64.3730   114.0060    12.1490 OS            1 RES     
   10596 O           65.2320   124.6720     6.5390 O             1 RES     
   10597 O           60.0290   105.5380     8.3100 O             1 RES     
   10598 Si          75.5300   122.6310     7.8570 Si            1 RES     
   10599 O           52.1790   147.9090     3.7720 O             1 RES     
   10600 Si          78.9950   123.7520     5.4270 Si            1 RES     
   10601 Si          53.1650   110.6790    10.1300 Si            1 RES     
   10602 O           66.2890   128.8230     5.1010 O             1 RES     
   10603 O           67.3520   132.1840     7.5460 O             1 RES     
   10604 O           84.8070   139.4040     4.0380 O             1 RES     
   10605 Si          86.5260   142.5080     5.6500 Si            1 RES     
   10606 O           69.9540   106.7290     6.2850 O             1 RES     
   10607 OS          54.6190   112.9200    13.5930 OS            1 RES     
   10608 O           52.3390   104.1420     7.6210 O             1 RES     
   10609 O           91.9660   130.8780     9.8350 O             1 RES     
   10610 Si          85.8660   149.2400     2.9200 Si            1 RES     
   10611 O           58.7220   118.7280     5.6150 O             1 RES     
   10612 O           64.6250   103.0450    13.8430 O             1 RES     
   10613 Si          85.9630   137.4350     6.4760 Si            1 RES     
   10614 Si          55.4570   115.2780     7.5350 Si            1 RES     
   10615 OS          77.9400   114.5790    12.6080 OS            1 RES     
   10616 Si          93.3240   141.8310     3.2860 Si            1 RES     
   10617 Si          93.4030   146.2690     6.1900 Si            1 RES     
   10618 Si          79.6460   111.3040     7.7860 Si            1 RES     
   10619 O           86.5260   114.3320    10.5830 O             1 RES     
   10620 O           86.0060   143.7990     6.4990 O             1 RES     
   10621 Si          58.0120   114.4310     6.0600 Si            1 RES     
   10622 O           88.2490   118.3300     8.8490 O             1 RES     
   10623 O           93.7310   119.8350     3.3930 O             1 RES     
   10624 O           77.6680   135.9060     3.0870 O             1 RES     
   10625 O           50.4900   143.5340    10.0180 O             1 RES     
   10626 O           63.6420   135.4190     6.9260 O             1 RES     
   10627 Si          62.9910   127.1330    10.9580 Si            1 RES     
   10628 Si          73.8630   145.8620    11.9930 Si            1 RES     
   10629 O           72.2970   148.3590     5.3120 O             1 RES     
   10630 Si          75.9610   105.2320     7.8690 Si            1 RES     
   10631 O           74.2940   101.8930     2.7680 O             1 RES     
   10632 O           66.4760   137.7040     4.3180 O             1 RES     
   10633 OS          72.5200   149.9330    12.4180 OS            1 RES     
   10634 O           88.9960   106.4630     3.1540 O             1 RES     
   10635 Si          60.7150   131.6810    12.0640 Si            1 RES     
   10636 O           84.5510   135.6090    12.8760 O             1 RES     
   10637 Si          90.2900   117.2020     6.6710 Si            1 RES     
   10638 O           50.1750   117.8730     2.5890 O             1 RES     
   10639 O           94.9450   125.3230     1.8730 O             1 RES     
   10640 O           75.4540   116.6890     4.0590 O             1 RES     
   10641 O           71.2320   141.1290     3.7910 O             1 RES     
   10642 O           97.9910   120.1320     7.5240 O             1 RES     
   10643 O           78.9260   101.4310     7.6320 O             1 RES     
   10644 Si          74.1400   106.9550     9.6920 Si            1 RES     
   10645 Si          60.0460   145.8610    12.3140 Si            1 RES     
   10646 O           69.5920   146.6460     7.8140 O             1 RES     
   10647 O           99.2820   113.9790     6.4470 O             1 RES     
   10648 Si          82.7610   130.8370     8.0090 Si            1 RES     
   10649 OS          86.0280   119.1090    11.6440 OS            1 RES     
   10650 O           75.9280   136.2850     9.9660 O             1 RES     
   10651 Si          58.0890   109.1650     3.4690 Si            1 RES     
   10652 O           57.4840   143.0870     8.6110 O             1 RES     
   10653 O           51.1320   127.7500     4.4110 O             1 RES     
   10654 Si          91.8280   148.1740     7.9800 Si            1 RES     
   10655 Si          88.2600   109.3290     6.6120 Si            1 RES     
   10656 O           90.4440   145.0910    11.7210 O             1 RES     
   10657 O           72.1720   128.9880    12.0870 O             1 RES     
   10658 O           72.5850   142.3680     5.5940 O             1 RES     
   10659 OS          56.3640   100.9860    13.3560 OS            1 RES     
   10660 O           71.1010   118.6210     4.3820 O             1 RES     
   10661 O           78.6020   125.5380    10.9880 O             1 RES     
   10662 Si          95.1290   116.0420     5.8950 Si            1 RES     
   10663 OS          98.0560   145.4530    12.2910 OS            1 RES     
   10664 O           63.8490   113.9900     5.4690 O             1 RES     
   10665 Si          91.6930   122.5180     5.2840 Si            1 RES     
   10666 O           57.7250   110.1780     9.7690 O             1 RES     
   10667 O           65.1780   141.4640     6.7210 O             1 RES     
   10668 O           50.5540   124.3760     6.7230 O             1 RES     
   10669 Si          88.2510   139.6490    11.1770 Si            1 RES     
   10670 O           63.2470   104.9020     3.6700 O             1 RES     
   10671 O           87.0490   108.3670     5.3170 O             1 RES     
   10672 O           68.5340   109.5700     4.7320 O             1 RES     
   10673 O           78.1010   107.5450     8.9600 O             1 RES     
   10674 O           54.4450   149.1510     3.9220 O             1 RES     
   10675 Si          84.1500   100.2340     6.9910 Si            1 RES     
   10676 O           78.9690   100.5530     5.4100 O             1 RES     
   10677 O           75.2910   145.2430    11.4690 O             1 RES     
   10678 OS          98.5810   100.0460    12.8100 OS            1 RES     
   10679 O           59.1010   141.7060     7.7430 O             1 RES     
   10680 OS          98.7460   116.5420    13.5350 OS            1 RES     
   10681 O           52.8580   131.2520    11.5010 O             1 RES     
   10682 O           78.9490   132.9340     4.0500 O             1 RES     
   10683 Si          96.1820   113.6870    12.6920 Si            1 RES     
   10684 O           72.4060   127.0210     4.5720 O             1 RES     
   10685 O           82.4200   122.4380     3.8130 O             1 RES     
   10686 Si          69.3320   137.9810     7.2560 Si            1 RES     
   10687 OS          51.1850   149.5760    12.8470 OS            1 RES     
   10688 Si          73.2730   136.9670    11.8210 Si            1 RES     
   10689 O           75.0460   137.2640     7.3890 O             1 RES     
   10690 O           64.9480   119.2350     6.0250 O             1 RES     
   10691 O           70.8760   130.5270     2.4170 O             1 RES     
   10692 Si          97.2880   148.5670     9.7450 Si            1 RES     
   10693 Si          89.1580   105.4970    12.3780 Si            1 RES     
   10694 O           56.1050   135.7080     4.4190 O             1 RES     
   10695 OS          86.5980   102.3970    12.3880 OS            1 RES     
   10696 Si          65.4760   120.6070     6.7620 Si            1 RES     
   10697 O           64.5900   133.3570    11.3350 O             1 RES     
   10698 Si          67.0470   100.9500    12.4370 Si            1 RES     
   10699 O           52.3170   107.2640     8.3850 O             1 RES     
   10700 O           59.0200   136.3940     7.3610 O             1 RES     
   10701 O           50.4130   136.1710    11.9020 O             1 RES     
   10702 O           57.3160   117.2230    10.7510 O             1 RES     
   10703 O           98.3180   149.4250     8.8890 O             1 RES     
   10704 Si          96.3050   107.2390    11.5810 Si            1 RES     
   10705 Si          50.9870   122.4530    12.7220 Si            1 RES     
   10706 O           76.4740   116.1000     1.6920 O             1 RES     
   10707 OS          62.6550   143.2920    11.9990 OS            1 RES     
   10708 O           58.1300   103.5870    11.1090 O             1 RES     
   10709 OS          93.5260   105.4500    13.6310 OS            1 RES     
   10710 O           62.0960   109.1050     6.9030 O             1 RES     
   10711 Si          84.7290   119.2200    10.7460 Si            1 RES     
   10712 O           59.8690   136.6850     4.6570 O             1 RES     
   10713 O           91.9290   117.3280     6.3350 O             1 RES     
   10714 O           59.4350   146.6280     4.5100 O             1 RES     
   10715 O           90.4240   108.4670     2.8820 O             1 RES     
   10716 Si          76.2590   107.5200    11.9100 Si            1 RES     
   10717 O           82.8230   146.4750     9.3520 O             1 RES     
   10718 Si          56.6160   122.6860     3.5980 Si            1 RES     
   10719 O           77.6590   126.8770     8.9330 O             1 RES     
   10720 Si          65.6720   143.1520     3.8470 Si            1 RES     
   10721 O           94.8030   125.8370     6.1180 O             1 RES     
   10722 O           62.3800   100.3960     4.1410 O             1 RES     
@<TRIPOS>BOND
       1     9419     9735 1
       2     2398     2472 1
       3     9322    10507 1
       4     3738     4732 1
       5     4136     4532 1
       6     9346     9420 1
       7     2482     3197 1
       8     9518     9862 1
       9     3019     2182 1
      10     3790     4183 1
      11     5409     5773 1
      12      424      430 1
      13      479     1341 1
      14     2572     2611 1
      15     1135     1143 1
      16       18      787 1
      17     9586    10352 1
      18     9977    10024 1
      19     4254     9523 1
      20     7027     7042 1
      21     3571     4010 1
      22     6817     6837 1
      23     9997    10409 1
      24     8804     7657 1
      25     9593     9698 1
      26     9301    10165 1
      27     1291     1778 1
      28     7360     8442 1
      29     2999     3064 1
      30     3964     4235 1
      31     2541     2754 1
      32      837      699 1
      33     5267    10188 1
      34     9788    10406 1
      35      904      943 1
      36     3230     3470 1
      37     8836     7489 1
      38     4870     5062 1
      39     6075     6176 1
      40     2328     2437 1
      41     7517     8568 1
      42     3670     4751 1
      43     7290     8644 1
      44     5602     6983 1
      45     8756     7535 1
      46     6198     6577 1
      47      896     1671 1
      48    10066    10643 1
      49     3016     3188 1
      50     5470     5934 1
      51     3778     5344 1
      52    10102    10600 1
      53     9461     9802 1
      54      773     1332 1
      55     8204     8431 1
      56     7671     8555 1
      57     9469    10255 1
      58     9331    10154 1
      59     2553     2083 1
      60     9975    10312 1
      61     4286     4525 1
      62     6028    10547 1
      63     5798     6516 1
      64    10205    10538 1
      65     5606     5650 1
      66     5699     6703 1
      67     3849     5271 1
      68     9465     9978 1
      69     8047     8494 1
      70     6440     6909 1
      71     9194     9716 1
      72     9775    10275 1
      73     9799    10060 1
      74     7545     8040 1
      75      533      546 1
      76     8785     8416 1
      77     3068     2367 1
      78     9599    10476 1
      79     4288     4344 1
      80     2167     3526 1
      81     3310     7954 1
      82     8952     9703 1
      83     4400     4423 1
      84     5802     6718 1
      85     5789     6322 1
      86     2897     2293 1
      87     3758     4581 1
      88     8514     8517 1
      89      210      256 1
      90       67      110 1
      91     5422     5753 1
      92     2500     2363 1
      93     9408    10224 1
      94     9763    10602 1
      95     9289     9569 1
      96      731     1759 1
      97     3937     5324 1
      98     7225     7369 1
      99     5696     5952 1
     100     3982     4013 1
     101     3565     4301 1
     102     7592     8517 1
     103     1134     1712 1
     104     1140     1481 1
     105     9002    10306 1
     106     4734     4947 1
     107     1158     1612 1
     108     7431     8342 1
     109     6073     6179 1
     110     6607     7018 1
     111     1605      165 1
     112     4584     5251 1
     113     9016     9164 1
     114     1006     1690 1
     115     1399      262 1
     116     9960    10327 1
     117     4309     5051 1
     118     2787     3146 1
     119     5930     6244 1
     120     5575     6950 1
     121     9687    10209 1
     122     1269       92 1
     123     8193     8460 1
     124     3030     2139 1
     125     6202     6818 1
     126     9118    10553 1
     127     1138     1731 1
     128     6119     6216 1
     129     3835     3954 1
     130     3854     4914 1
     131      285     5969 1
     132      732     1310 1
     133      865      671 1
     134     8995     9606 1
     135     4799     5117 1
     136     6378     6960 1
     137     3781     4371 1
     138     2786     3191 1
     139     1586      241 1
     140     7641     7730 1
     141     9656    10392 1
     142     1344      371 1
     143     6504     6734 1
     144     6594     6766 1
     145     1678      234 1
     146     1622     1643 1
     147     2348     2163 1
     148     8796     8662 1
     149     2428     3147 1
     150     1716      103 1
     151     2982     2445 1
     152     2134     2163 1
     153     6641     6945 1
     154     9337    10174 1
     155        1      221 1
     156     7408     8609 1
     157     9426    10303 1
     158     2988      672 1
     159     7986     8605 1
     160     6537     6686 1
     161     3599     4865 1
     162     9852    10672 1
     163     9452     9803 1
     164     4403     4753 1
     165     4105     4812 1
     166     1341      172 1
     167     3891     4303 1
     168     3209     1870 1
     169     3645     4646 1
     170     2945     3129 1
     171      861     1536 1
     172     9289    10141 1
     173     9090    10444 1
     174     6082     6471 1
     175     9899    10447 1
     176     9156    10167 1
     177     7890     8302 1
     178     1873     2145 1
     179     2913     2438 1
     180      365      159 1
     181     6458     6698 1
     182     9824    10020 1
     183     5595     6302 1
     184     9215     9892 1
     185     5493     6659 1
     186     7173     7304 1
     187     9074    10198 1
     188     8823     7311 1
     189     6506     6533 1
     190     2029     3364 1
     191     2639     3270 1
     192     6498     7073 1
     193     3917     4090 1
     194     6089     6833 1
     195     9681    10475 1
     196     5492     6193 1
     197     3870     4193 1
     198     3830     4374 1
     199     9263    10581 1
     200     5205     5290 1
     201     8873     7646 1
     202     3339     3447 1
     203     4203     4769 1
     204      898      713 1
     205     2712     1860 1
     206     8807     8623 1
     207      460      331 1
     208     2413     1496 1
     209     8951    10465 1
     210     3060     3081 1
     211     7404     7999 1
     212     7302     8290 1
     213     9934    10545 1
     214     9063    10191 1
     215      911     1089 1
     216     9343     9690 1
     217     5702     6425 1
     218     6137     6777 1
     219     9509    10028 1
     220     8807     7346 1
     221     8800     7334 1
     222     6152     6187 1
     223    10161    10538 1
     224     1030      490 1
     225     8265     8402 1
     226      991     1770 1
     227     9663    10169 1
     228     5422     6527 1
     229     8022     8514 1
     230     8894     8451 1
     231     7289     7785 1
     232     5766     6113 1
     233     3875     4121 1
     234     7555     8066 1
     235     9244     9805 1
     236      582     6053 1
     237     2303     3328 1
     238      121      203 1
     239     4128     4145 1
     240      550     1115 1
     241    10168    10653 1
     242     4984     5254 1
     243     4543     5031 1
     244     4636     5229 1
     245     2347     3244 1
     246     7444     8143 1
     247     9025     9300 1
     248     5432     6288 1
     249     2407     3222 1
     250     9959    10622 1
     251      694      636 1
     252     7515     8409 1
     253     7768     8188 1
     254      577     4406 1
     255     4856     5061 1
     256    10061    10463 1
     257     2595     4328 1
     258     7699     8385 1
     259     3231     5288 1
     260     6122     6634 1
     261     9432    10147 1
     262     2409     1949 1
     263     7758     8707 1
     264     2949     1850 1
     265     3691     4983 1
     266     3645     3781 1
     267     4794     5167 1
     268      561     1252 1
     269     7286     8165 1
     270     8338     8449 1
     271     1226     1309 1
     272        2      739 1
     273     1842     1876 1
     274     3673     4887 1
     275     3596     4592 1
     276     3683     4041 1
     277     3648     5177 1
     278     9128     9356 1
     279     2274     3431 1
     280     4166     4559 1
     281     9737    10143 1
     282     7220     8019 1
     283     2477     8356 1
     284     4382     4428 1
     285     6534     6535 1
     286     9883    10700 1
     287     2781     3344 1
     288     1046     1704 1
     289     2568     2936 1
     290     2697     2964 1
     291     7325     7970 1
     292     2677     2912 1
     293     4996     5337 1
     294      650     1710 1
     295     8927     7644 1
     296    10078    10589 1
     297     9244    10702 1
     298     1080     5591 1
     299     9744    10261 1
     300     7519     8218 1
     301     6248     6765 1
     302     4127     5296 1
     303     3055     2103 1
     304     2832     2320 1
     305      841      343 1
     306     3798     4516 1
     307     9390     9439 1
     308     8736     7532 1
     309     8970    10470 1
     310     1086      425 1
     311     6135     6358 1
     312     8744    10303 1
     313     1961     2264 1
     314     5666     7105 1
     315     4384     4951 1
     316     4048     4849 1
     317     6480     6606 1
     318     9503    10305 1
     319     4037     4387 1
     320     2145     3388 1
     321     6479     7039 1
     322     8034     8543 1
     323     8984     9379 1
     324     6624     8354 1
     325      294     1697 1
     326     7219     7499 1
     327     3041     2380 1
     328     3320     3524 1
     329     8767     7875 1
     330    10011    10600 1
     331     2248     3522 1
     332     1572      260 1
     333     9193    10616 1
     334     9674    10560 1
     335      499      588 1
     336     3342     2026 1
     337     5363     5529 1
     338     7258     7903 1
     339     5406     7090 1
     340     2313     1878 1
     341     9419    10183 1
     342      917      422 1
     343     5880     5955 1
     344     8720     8317 1
     345     9893    10453 1
     346     7375     7429 1
     347      787      823 1
     348     5993    10438 1
     349     5569     6507 1
     350     9313    10693 1
     351     1289      138 1
     352     6665     6855 1
     353     2515     2356 1
     354     9761     9870 1
     355     2962     2253 1
     356     7430     8620 1
     357     6268     6307 1
     358     8432     8496 1
     359     6813     7132 1
     360     9402     9491 1
     361     6116     6247 1
     362      892      401 1
     363     5910     6517 1
     364     7321     7921 1
     365     1818     1966 1
     366     5411     6460 1
     367     5689     6373 1
     368     2864     2048 1
     369     4533     5311 1
     370     3582     3588 1
     371     4681     9000 1
     372      664      445 1
     373     3650     4063 1
     374     7552     7865 1
     375     8002     8307 1
     376     5395     9903 1
     377     9262    10692 1
     378     1896     1993 1
     379     5976     7032 1
     380     3730     4910 1
     381     3132     3373 1
     382     9650     9805 1
     383     9929    10353 1
     384     9336     9788 1
     385     4257     5088 1
     386     6948     7114 1
     387     7766     8547 1
     388      949      583 1
     389     5397     6937 1
     390     6009     6669 1
     391     7704     8100 1
     392     8759     8494 1
     393       35       63 1
     394     7241     8235 1
     395     4473     4741 1
     396      801     1610 1
     397     8770     8012 1
     398     6173     6996 1
     399     2519     2975 1
     400      960     1822 1
     401      915      752 1
     402     2993     2126 1
     403     3674     4127 1
     404     7077     7093 1
     405    10115    10518 1
     406     5540     6509 1
     407     2017     8206 1
     408     6660     7039 1
     409      604     1241 1
     410      610      190 1
     411     3341     1797 1
     412     2882     4173 1
     413     6394     7117 1
     414     5356     6100 1
     415     8165     8238 1
     416     5752     7078 1
     417    10572    10637 1
     418     8862     7497 1
     419     6202     6604 1
     420      989      559 1
     421     4207     5020 1
     422     1414      171 1
     423     1969     3471 1
     424     1202     4239 1
     425      715     1150 1
     426     2544     3220 1
     427    10343    10500 1
     428     7160     8302 1
     429     6175     7057 1
     430     3241     3496 1
     431      881     1077 1
     432     5637     6244 1
     433     3721     4639 1
     434     9388    10235 1
     435     7576     7738 1
     436     7981     8568 1
     437     5683     5927 1
     438     1415      304 1
     439      766      106 1
     440     7582     8205 1
     441     2803     2875 1
     442     4172     4925 1
     443     2520     1813 1
     444     8739     7746 1
     445     8827     7175 1
     446     2978     2078 1
     447     6112     6517 1
     448     9031    10662 1
     449     7757     8136 1
     450      689     1080 1
     451      657     3518 1
     452     1330     1532 1
     453    10269    10511 1
     454     4788     4885 1
     455     5999     6059 1
     456     9065     9085 1
     457     3102     3463 1
     458     7183     7782 1
     459     5959     6380 1
     460     3330     2197 1
     461     2803     1926 1
     462     2642     1891 1
     463     9203    10664 1
     464     7257     7661 1
     465     8859     8283 1
     466     2984     4579 1
     467     5442     5726 1
     468     9008     9329 1
     469     5907     7009 1
     470     1000      291 1
     471     1267     1486 1
     472     3802     4196 1
     473     7333     8296 1
     474     7529     7975 1
     475     3257     1962 1
     476      868     1063 1
     477     9830    10238 1
     478      989      412 1
     479     7961     8008 1
     480     5597     5994 1
     481      575     1540 1
     482     6194     7038 1
     483     4708     4995 1
     484     8757     7794 1
     485     8906     7869 1
     486     9193     9720 1
     487     5735     6416 1
     488      855     1157 1
     489    10106    10503 1
     490     8784     8159 1
     491      758     1452 1
     492     1674      106 1
     493     9050    10188 1
     494     6321     6573 1
     495     2563     1871 1
     496     8890     8686 1
     497     5573     6457 1
     498     5402     5547 1
     499      653      546 1
     500     1300      118 1
     501     4838     5125 1
     502     7157     8548 1
     503     8093     8506 1
     504     9908    10681 1
     505     5725     7114 1
     506     2769     2313 1
     507     5765     6858 1
     508     4246     4712 1
     509     5719     5868 1
     510     6515     7032 1
     511     8869     7607 1
     512     3922     4838 1
     513     6599     6858 1
     514     3803     4223 1
     515     1031     1630 1
     516     7569     8234 1
     517     1855     3462 1
     518     2840     2028 1
     519     6187     6269 1
     520     5962     6651 1
     521     2573     2807 1
     522     7427     8714 1
     523     6598     6812 1
     524      951     1291 1
     525     3723     4860 1
     526     3676     4764 1
     527     2727     3108 1
     528     6057     7009 1
     529     8215     9783 1
     530     6038     7834 1
     531     5763     6034 1
     532     7211     7589 1
     533     7479     8219 1
     534     6002     6212 1
     535     4028     5281 1
     536     3316     2216 1
     537     2168     3350 1
     538      631      243 1
     539     4517     4638 1
     540      663      280 1
     541     4194     5153 1
     542     9135    10669 1
     543     1880     2195 1
     544     9517    10118 1
     545     9134     9956 1
     546     6454     7003 1
     547     2985     3538 1
     548     9120     9572 1
     549     7533     8256 1
     550     1849     8261 1
     551     8084     8557 1
     552     9941    10348 1
     553     8809     8308 1
     554     6463     6692 1
     555     2612     5288 1
     556     2447      878 1
     557     9782    10398 1
     558     1091      300 1
     559     2828     3299 1
     560     7621     8491 1
     561     4618     4812 1
     562     6105     6430 1
     563     2656     2798 1
     564     5641     6642 1
     565     3713     8946 1
     566     2531     2188 1
     567     8874     8000 1
     568     5914     6955 1
     569      851     1485 1
     570     7665     8002 1
     571      500      120 1
     572     7255     8468 1
     573     2653     2456 1
     574     2636     3244 1
     575      798      141 1
     576     3167     3559 1
     577      986     1646 1
     578     7228     7268 1
     579     9961    10566 1
     580     3902     5136 1
     581     6163     6912 1
     582     9192    10279 1
     583     3578     3597 1
     584     5420     5464 1
     585      893      393 1
     586     4168     4346 1
     587     5486     6092 1
     588     5509     6709 1
     589      557     1256 1
     590     2700     2344 1
     591     9340     9610 1
     592     6583     6960 1
     593     5482     6472 1
     594     7901     7973 1
     595      584     1282 1
     596      794      582 1
     597     4095     4838 1
     598     9069     9607 1
     599     4477     5302 1
     600     2935     2236 1
     601     3036     1782 1
     602     4356     5044 1
     603     4144     4283 1
     604      479     1404 1
     605     1025     1707 1
     606     3729     4982 1
     607     2502     3493 1
     608      491      518 1
     609     8942    10032 1
     610     2330     2346 1
     611     1315     1681 1
     612     2351     3198 1
     613     2488     2275 1
     614     5665     6237 1
     615     6379     6673 1
     616     9276    10552 1
     617     3703     5291 1
     618     6183     7024 1
     619      286     1732 1
     620     3971     4408 1
     621     3921     4502 1
     622     8932     9156 1
     623     3929     4211 1
     624      130      187 1
     625     5458     6712 1
     626     3904     4536 1
     627     3592     3760 1
     628     9029     9719 1
     629     3967     4770 1
     630     6292     7050 1
     631     5577     5705 1
     632     7362     7949 1
     633     5647     6610 1
     634     9239    10357 1
     635     3413     3479 1
     636     5872     6224 1
     637     3722     5039 1
     638      883      751 1
     639     1164      228 1
     640     9648    10305 1
     641     3827     4093 1
     642     1828     3406 1
     643      910      223 1
     644     5679     6633 1
     645     5660     6359 1
     646      641     1500 1
     647     7801     8626 1
     648     1091     1642 1
     649     7763     8930 1
     650     9150    10180 1
     651    10416    10598 1
     652     1019     1625 1
     653     4190     4608 1
     654      398      199 1
     655     7379     8096 1
     656     5405     6240 1
     657     6504     6843 1
     658     4296     5085 1
     659     9182     9407 1
     660     4793     4878 1
     661     4889     5115 1
     662     2571     2750 1
     663     6009     6726 1
     664     3036     1909 1
     665     5485     5505 1
     666     5025     5045 1
     667      392     1717 1
     668     2471     3187 1
     669    10305    10313 1
     670     9266     9363 1
     671     5512     6614 1
     672       38      185 1
     673     7749     8689 1
     674     8788     7787 1
     675     8890     8113 1
     676     8964     9651 1
     677     2884     2117 1
     678     7586     8678 1
     679     2526     2919 1
     680     5855     5927 1
     681     4826     4904 1
     682     9848    10117 1
     683     9145    10326 1
     684     8581     8644 1
     685     1383     1454 1
     686     2912     3099 1
     687    10068    10253 1
     688     9817    10308 1
     689     1082      239 1
     690     2669     2862 1
     691     1017     1576 1
     692     6099     6647 1
     693     9187     9230 1
     694     6791     7062 1
     695     7764     8036 1
     696     3946     4083 1
     697     8739     8096 1
     698     6356     6993 1
     699     5475     6069 1
     700     2903     3048 1
     701     1392     1497 1
     702     4017     4078 1
     703     5954     6680 1
     704     5500     6381 1
     705     2419     2476 1
     706     1980     2180 1
     707     3658     3974 1
     708     2609     3327 1
     709     5172    10135 1
     710     3093     2428 1
     711     9098    10411 1
     712     7328     8469 1
     713     2318     3373 1
     714     2631     3249 1
     715     7781     8313 1
     716     9377     9591 1
     717     8769     7195 1
     718     9635    10604 1
     719     9738    10229 1
     720     4191     4369 1
     721     4219     4615 1
     722     3315     3333 1
     723     3842     4709 1
     724     7825     8431 1
     725     8994    10273 1
     726     5956     7130 1
     727     7280     9904 1
     728     7487     8659 1
     729      933     1351 1
     730     8261     8663 1
     731     7982     8362 1
     732     5600     7043 1
     733     4132     4577 1
     734     1913     2126 1
     735     7697     8526 1
     736     9682    10430 1
     737     4568     5035 1
     738     5818     6455 1
     739     6391     6648 1
     740     1776     1597 1
     741      813     1624 1
     742     2336     2205 1
     743     4570     5138 1
     744     4521     4687 1
     745     4432     5191 1
     746     5355     6739 1
     747     2130     3455 1
     748     1424       88 1
     749     7237     8315 1
     750     6367     6932 1
     751     6228     6983 1
     752     5101     5118 1
     753     9181    10412 1
     754     8070     8656 1
     755     9739    10113 1
     756     4006     4092 1
     757     5447     6856 1
     758     7196     7953 1
     759     2452     1989 1
     760     2331     1902 1
     761     9608    10125 1
     762     7240     7557 1
     763      690     1739 1
     764     5987     6403 1
     765     8125     8343 1
     766     2796     2351 1
     767     5473     5804 1
     768     9508    10047 1
     769     2991     3479 1
     770      587     1496 1
     771     9694    10082 1
     772      826     5864 1
     773      504      275 1
     774     3926     4366 1
     775     5500     6451 1
     776     8960     9287 1
     777     1516     1569 1
     778     7034     7119 1
     779      921     1394 1
     780        9      607 1
     781     7767     8597 1
     782      496      301 1
     783     5945     6170 1
     784     2793     2094 1
     785     6619     6782 1
     786     5762     6254 1
     787     5632     6176 1
     788     7557     8575 1
     789     1143      215 1
     790    10066    10234 1
     791     7158     8707 1
     792     3949     4600 1
     793     1121     1351 1
     794      306     1689 1
     795     1470      246 1
     796     5973     7054 1
     797    10174    10679 1
     798     1049      443 1
     799     2867     3436 1
     800     8809     8216 1
     801     2976     2347 1
     802     7458     8527 1
     803     4753     4784 1
     804     5793     6576 1
     805     2661     2325 1
     806     3024     2263 1
     807     6040     6876 1
     808     6470     7125 1
     809      686      331 1
     810     1501      259 1
     811     1167     1379 1
     812     4499     4857 1
     813      881     1519 1
     814     6213     6973 1
     815     2347     2364 1
     816     1430      297 1
     817     6875     7010 1
     818     1223      407 1
     819     5839     6873 1
     820     5706     7035 1
     821     9403     9478 1
     822     4369     5179 1
     823     5520     6700 1
     824     3089     3276 1
     825     3925     3963 1
     826     7636     7795 1
     827     4004     5098 1
     828     7233     7505 1
     829     7226     7362 1
     830     7531     8394 1
     831     7818     8663 1
     832     3678     5229 1
     833     9790     9893 1
     834     2505     3091 1
     835     2848     3253 1
     836     7506     8009 1
     837     2842     2267 1
     838     7866     8547 1
     839     6363     6769 1
     840       31      492 1
     841     9893    10647 1
     842     4177     4818 1
     843     3891     4576 1
     844     3618     5316 1
     845     8929     7478 1
     846     7169     8100 1
     847     5429     6953 1
     848      656      244 1
     849     5804     6029 1
     850      761     3884 1
     851     9411     9887 1
     852     7357     8540 1
     853    10098    10419 1
     854     3804     4495 1
     855     2836     1786 1
     856      942     1749 1
     857     7392     8364 1
     858     5535     6197 1
     859     4279     4466 1
     860      811      243 1
     861     4479     4657 1
     862     5570     6596 1
     863     1127      343 1
     864     1006      229 1
     865     2558     3119 1
     866     4518     5275 1
     867     2714     3257 1
     868     5840     5900 1
     869     2349     2278 1
     870     7552     8147 1
     871     9307    10286 1
     872     1874     1889 1
     873     5876     6470 1
     874     2835     2010 1
     875     7544     8210 1
     876     9959    10517 1
     877      683     1078 1
     878     2411     2092 1
     879     1797     1848 1
     880     6116     6344 1
     881     2934     3175 1
     882     7786     8032 1
     883     7926     8232 1
     884     2608     1852 1
     885     1373     1554 1
     886     7632     7659 1
     887     4614     5272 1
     888     2825     2407 1
     889      401      205 1
     890     7326     7774 1
     891     5929     6448 1
     892     3123     3318 1
     893     7465     7804 1
     894     3953     4915 1
     895     2986     2078 1
     896     3860     4190 1
     897      800     1075 1
     898     5401     6985 1
     899     8044     8589 1
     900     4800     5309 1
     901     9410    10119 1
     902     2418     1784 1
     903     9127     9979 1
     904     7181     8265 1
     905     5925     6554 1
     906     3012     3097 1
     907     1115      272 1
     908     8037     8275 1
     909     5625     6025 1
     910     9072    10230 1
     911     9345     9664 1
     912     2834     2225 1
     913     4480     4732 1
     914     9128    10592 1
     915     7322     8621 1
     916     4333     5333 1
     917     4146     9629 1
     918     5434     5870 1
     919     8957     9889 1
     920     6204    10674 1
     921     2636     2422 1
     922     1044     1308 1
     923      760     1436 1
     924      945     1357 1
     925     9245     9713 1
     926     9576    10672 1
     927     9356    10556 1
     928     2802     2991 1
     929     8390     8513 1
     930     6227     6446 1
     931     9187     9619 1
     932     5754     6576 1
     933     3702     4442 1
     934     2458     2491 1
     935     9839    10384 1
     936     2025     3463 1
     937    10397    10417 1
     938     3240     3260 1
     939     9155    10458 1
     940     1808     1854 1
     941     2819     2896 1
     942     5453     5659 1
     943     9344     9916 1
     944     5478     6983 1
     945     2449     7773 1
     946     7636     8354 1
     947     2759     1992 1
     948     8765     8088 1
     949     5783     5790 1
     950     7408     7754 1
     951     7154     7613 1
     952       45     1515 1
     953     9333     9350 1
     954      864     1658 1
     955     1848     1972 1
     956     3577     5126 1
     957     5386     6102 1
     958     7691     8302 1
     959     4241     4985 1
     960     4411     4491 1
     961     1064      362 1
     962     3627     4032 1
     963     7338     7727 1
     964      858     1310 1
     965     1010      568 1
     966     3114     3354 1
     967        3      635 1
     968     9163    10057 1
     969     9645    10303 1
     970     3591     4053 1
     971     2745     3202 1
     972     7551     8121 1
     973     9595     9990 1
     974     4386     5085 1
     975     4135     4449 1
     976     6015     6120 1
     977     4225     4487 1
     978     9544     9684 1
     979     3497     3514 1
     980     9871    10627 1
     981      722     1303 1
     982     3842     4890 1
     983     5780     6772 1
     984     5995     6809 1
     985     4079     4756 1
     986     9775     9843 1
     987     3809     4316 1
     988     1420      374 1
     989     2817     2171 1
     990     6150     6595 1
     991     2645     2274 1
     992     7478     8518 1
     993     9839     9910 1
     994     8781     8538 1
     995     2694     3483 1
     996     3698     4862 1
     997    10502    10720 1
     998     9234    10395 1
     999     8723     8492 1
    1000     6110     6555 1
    1001     2574     3259 1
    1002     3568     4625 1
    1003     9283     9940 1
    1004     2445     3450 1
    1005     2302     2375 1
    1006     2642     2304 1
    1007      934      530 1
    1008     3982     4977 1
    1009     9906    10571 1
    1010     2339     8120 1
    1011     9630    10023 1
    1012      798     1550 1
    1013     5871     6481 1
    1014     9220     9986 1
    1015     8990    10686 1
    1016      504     1726 1
    1017     6055     6892 1
    1018     9688    10336 1
    1019     2614     1816 1
    1020     3734     4521 1
    1021     5043     5072 1
    1022     5610     5684 1
    1023     2465     2478 1
    1024     1951     3456 1
    1025     3854     5276 1
    1026     2846     1904 1
    1027     4240     4274 1
    1028     9244     9678 1
    1029     2309     3205 1
    1030     1339      344 1
    1031     6664     7107 1
    1032     5821     6007 1
    1033     1536      208 1
    1034     9693    10644 1
    1035     5945     6313 1
    1036     6588     6856 1
    1037      515     1348 1
    1038     8181     8229 1
    1039     5003     5198 1
    1040     1742      238 1
    1041     5640     7064 1
    1042     9596    10704 1
    1043      897      390 1
    1044     5658     5684 1
    1045     8172     8503 1
    1046     7789     8246 1
    1047     6065     6201 1
    1048     3753     4963 1
    1049     5366     6454 1
    1050     4464     4535 1
    1051     2638     1852 1
    1052     5471     6688 1
    1053     7962     8611 1
    1054     5808     6659 1
    1055     5696     5873 1
    1056     7635     8604 1
    1057    10253    10436 1
    1058     9363    10350 1
    1059      438     1729 1
    1060      406     5318 1
    1061     8771     7321 1
    1062     3728     4119 1
    1063     8074     8621 1
    1064     8080     8161 1
    1065     1719     1543 1
    1066     7532     8179 1
    1067     3900     5126 1
    1068     6095     6119 1
    1069     8897     9343 1
    1070     8939     9968 1
    1071      817      547 1
    1072     5821     6260 1
    1073     4616     4883 1
    1074     9222    10496 1
    1075     1432      287 1
    1076     9255    10380 1
    1077      634     1734 1
    1078      843     1464 1
    1079     2745     1835 1
    1080     9095     9555 1
    1081     2306     3412 1
    1082     1130      207 1
    1083     9500     9967 1
    1084     4462     4712 1
    1085     5664     6101 1
    1086     3961     4800 1
    1087     2956     3071 1
    1088     3643     4826 1
    1089     6831     7106 1
    1090     6394     6607 1
    1091     7537     8041 1
    1092     2520     2113 1
    1093     2852     4408 1
    1094     8826     8298 1
    1095     9133    10574 1
    1096     8803     8230 1
    1097     9106    10283 1
    1098     9314    10635 1
    1099     9097    10014 1
    1100     3987     4407 1
    1101     3939     5315 1
    1102     8965    10618 1
    1103     2912     3281 1
    1104     4140     5133 1
    1105     9239    10658 1
    1106     3896     5350 1
    1107     4046     4328 1
    1108     5990     6555 1
    1109     8148     8509 1
    1110     9765    10484 1
    1111     5504     6674 1
    1112     1326     1348 1
    1113     5656     5853 1
    1114      460      389 1
    1115     9545    10182 1
    1116      900      783 1
    1117     3664     4028 1
    1118     2106     4328 1
    1119     3305     3473 1
    1120     3181     1952 1
    1121     1004     1378 1
    1122     1088     1618 1
    1123     5858     7129 1
    1124     2492     1812 1
    1125     2392     3338 1
    1126     6322     6645 1
    1127      454     1149 1
    1128     1833     2238 1
    1129     2793     1972 1
    1130     5935     5947 1
    1131      608      610 1
    1132     9923    10651 1
    1133     3776     5063 1
    1134     2588     1933 1
    1135     3955     4779 1
    1136     7203     7403 1
    1137     5257     5307 1
    1138      451      421 1
    1139     3563     4306 1
    1140     1733      192 1
    1141     2850     2023 1
    1142     4834     5056 1
    1143     9122    10603 1
    1144     7188     7213 1
    1145     8322     8472 1
    1146     4042     9497 1
    1147     2586     2747 1
    1148     9317    10626 1
    1149      880      283 1
    1150     4507     4890 1
    1151      731     1619 1
    1152     3687     4677 1
    1153      593     1770 1
    1154    10063    10293 1
    1155      464     1479 1
    1156     3672     4264 1
    1157     3681     4269 1
    1158     5803     5889 1
    1159     2317     1865 1
    1160     4265     5035 1
    1161     1420     1566 1
    1162     6998     7083 1
    1163      564     1419 1
    1164     6261     6974 1
    1165     4185     4386 1
    1166     5784     6970 1
    1167     8370     8466 1
    1168     6039     6074 1
    1169     7351     8532 1
    1170      528     1420 1
    1171     7654     7788 1
    1172     2921     2929 1
    1173     9761    10682 1
    1174      975     1502 1
    1175     9089     9990 1
    1176     8574     8682 1
    1177     1191      248 1
    1178     9118    10116 1
    1179     2632     2694 1
    1180      603     1488 1
    1181       53     1034 1
    1182     9040     9709 1
    1183     5469     6611 1
    1184     7275     8170 1
    1185     1349     1637 1
    1186     9275    10014 1
    1187     4197     5021 1
    1188      605      226 1
    1189     8738     8495 1
    1190     1035      611 1
    1191     1658      205 1
    1192     7703     8401 1
    1193     9665    10341 1
    1194       22      138 1
    1195     9731    10416 1
    1196     5449     6516 1
    1197     1151     1670 1
    1198    10413    10509 1
    1199     9304    10692 1
    1200     5886     6093 1
    1201     2587     1868 1
    1202     2757     2453 1
    1203     9249     9885 1
    1204     2561     1961 1
    1205     2581     2054 1
    1206     5769     6329 1
    1207     3767     5106 1
    1208     8955     9441 1
    1209     5661     7051 1
    1210    10209    10520 1
    1211     3808     4623 1
    1212     2415     3236 1
    1213     6629     6732 1
    1214     3857     4767 1
    1215     1409      383 1
    1216     4361     4569 1
    1217     2747     3365 1
    1218     8775     7832 1
    1219     3815     3886 1
    1220     9024    10716 1
    1221      447     1581 1
    1222     4544     4750 1
    1223     4563     5202 1
    1224     4602     4679 1
    1225      564     1459 1
    1226     2818     1933 1
    1227     2717     3252 1
    1228     9296    10601 1
    1229     2740     2345 1
    1230     8929     8711 1
    1231     2882     3472 1
    1232     1198     1496 1
    1233     9430     9729 1
    1234     9467    10362 1
    1235     7247     7444 1
    1236     9006     9454 1
    1237    10173    10489 1
    1238     3029     3438 1
    1239      760     1327 1
    1240     2557     2049 1
    1241     1212     1660 1
    1242     1216      160 1
    1243      631      266 1
    1244     3662     4728 1
    1245     8841     7860 1
    1246     5471     6934 1
    1247     2616     2880 1
    1248     4122     4681 1
    1249     1775     1625 1
    1250     8604     8624 1
    1251     5467     6390 1
    1252     7700     8261 1
    1253     3173     2033 1
    1254     2598     3477 1
    1255     2772     2447 1
    1256     4437     4558 1
    1257     9754    10635 1
    1258     3641     4984 1
    1259      622     1760 1
    1260     9533     9886 1
    1261      670     1294 1
    1262     4565     4924 1
    1263     5865     6176 1
    1264     2326     5329 1
    1265     5483     6614 1
    1266     6409     7066 1
    1267     7530     8113 1
    1268     9919    10343 1
    1269     1754      123 1
    1270     4347     4595 1
    1271    10299    10634 1
    1272     3002     1940 1
    1273     8756     7229 1
    1274     7642     7859 1
    1275     4055     4425 1
    1276      654     1066 1
    1277     1075      364 1
    1278     2752     2355 1
    1279     7274     7392 1
    1280     4737     4852 1
    1281     7350     7811 1
    1282     9079    10513 1
    1283      550     1153 1
    1284     4585     4953 1
    1285     3735     4340 1
    1286     2932     1855 1
    1287     2905     3032 1
    1288     2870     2921 1
    1289      874     1366 1
    1290      607      345 1
    1291     4085     4427 1
    1292     7271     8039 1
    1293     6899     7103 1
    1294     7706     8339 1
    1295      987     1411 1
    1296     6120     7111 1
    1297     9586    10582 1
    1298      919      658 1
    1299     4389     5051 1
    1300     2907     1505 1
    1301     2820     2307 1
    1302      607     1356 1
    1303     2904     2346 1
    1304      947     1164 1
    1305     4529     5329 1
    1306     9575     9886 1
    1307     4406     4722 1
    1308      877     1644 1
    1309      799     6012 1
    1310      896     1441 1
    1311     8057     8327 1
    1312      967     1470 1
    1313     6105     6850 1
    1314     8983    10403 1
    1315      645      370 1
    1316     2952     1877 1
    1317     5586     6353 1
    1318     7809     7920 1
    1319      925     1539 1
    1320     7371     8173 1
    1321     7607     8628 1
    1322     3180     1838 1
    1323     5561     6494 1
    1324     6006     6248 1
    1325     8815     7350 1
    1326     2826     1812 1
    1327     9889    10160 1
    1328     9807    10598 1
    1329     2559     1989 1
    1330     9280    10281 1
    1331     5563     7028 1
    1332     6086     6358 1
    1333     9564    10085 1
    1334     4206     5070 1
    1335     2861     3531 1
    1336     2505     2562 1
    1337      440     1615 1
    1338       30     1392 1
    1339     5416     6719 1
    1340     9043     9244 1
    1341    10242    10485 1
    1342      736      333 1
    1343     1207     1306 1
    1344     7740     8404 1
    1345     7499     7861 1
    1346     9494     9784 1
    1347     9841    10378 1
    1348     1072      291 1
    1349     9641     9781 1
    1350      487     1282 1
    1351     8185     8377 1
    1352     1947     3412 1
    1353     5397     6938 1
    1354      237     6443 1
    1355     7180     7326 1
    1356     5713     7039 1
    1357     6439     7111 1
    1358     1050     1245 1
    1359     3018     2480 1
    1360     3592     4275 1
    1361     4155     4511 1
    1362     4497     5027 1
    1363     8805     8392 1
    1364      996     1633 1
    1365     3751     4714 1
    1366      777       95 1
    1367     8980    10099 1
    1368      393     1600 1
    1369     7914     8142 1
    1370     5420     5545 1
    1371     5642     6794 1
    1372     3691     5134 1
    1373     9250     9948 1
    1374     2434     2152 1
    1375     9325     9975 1
    1376      863      388 1
    1377     6009     6461 1
    1378     7232     7263 1
    1379     9656    10408 1
    1380     2730     3539 1
    1381     1274     1294 1
    1382     4760    10701 1
    1383     1264     1597 1
    1384     1133      100 1
    1385     5823     7139 1
    1386     4880     5064 1
    1387      781     1196 1
    1388     6312     6731 1
    1389     2662     2930 1
    1390     1974     3433 1
    1391     1924     3504 1
    1392     4009     4669 1
    1393     3622     3737 1
    1394     6100     6431 1
    1395     7262     7344 1
    1396     3646     4795 1
    1397     4911     5142 1
    1398     3835     4565 1
    1399     2396     1948 1
    1400     9472     9486 1
    1401     9281    10044 1
    1402     2440     2023 1
    1403     2331     1097 1
    1404     6710     6952 1
    1405     4126     4520 1
    1406     5539     5993 1
    1407     9349     9931 1
    1408      856      443 1
    1409     3970     4533 1
    1410     5201    10705 1
    1411     3130     2102 1
    1412     4116     9629 1
    1413     5738     6849 1
    1414      484      265 1
    1415     9806    10026 1
    1416     2431     3201 1
    1417     2769     3493 1
    1418     3221     2259 1
    1419     2605     3166 1
    1420     7226     8226 1
    1421     2436     2026 1
    1422      999     1434 1
    1423      499      384 1
    1424     2173     2240 1
    1425     5222     5291 1
    1426     4298     5188 1
    1427     5485     7028 1
    1428     3139     2392 1
    1429     8719     8666 1
    1430     1916     2215 1
    1431     2248     3494 1
    1432     9348     9861 1
    1433     1495     3519 1
    1434     1920     3792 1
    1435     9718    10635 1
    1436     7241     8083 1
    1437     1966     2151 1
    1438     7649     7958 1
    1439     8097     8218 1
    1440      931      427 1
    1441      704      737 1
    1442      761     3763 1
    1443     9252    10211 1
    1444     1123      102 1
    1445     3772     3919 1
    1446     9402    10339 1
    1447     9456    10204 1
    1448     9639    10173 1
    1449     9569    10133 1
    1450     5005     5077 1
    1451     2670     2476 1
    1452     2786     3218 1
    1453     5279     5329 1
    1454     4616     4850 1
    1455     5417     6548 1
    1456     2390     3142 1
    1457     1910     1968 1
    1458      511      346 1
    1459     7510     8390 1
    1460      706     1363 1
    1461     3130     2051 1
    1462     9348     9570 1
    1463     3067     2430 1
    1464     4587     5088 1
    1465     6486     6852 1
    1466     7785     8599 1
    1467     6052     6665 1
    1468    10314    10542 1
    1469     7634     8417 1
    1470     3941     4777 1
    1471     7522     8636 1
    1472     9551    10631 1
    1473     6180     9682 1
    1474     1039     1439 1
    1475     7468     8316 1
    1476     2816     3029 1
    1477     4187     5329 1
    1478     6675     6857 1
    1479     2135     2260 1
    1480      989      144 1
    1481     7392     7821 1
    1482     8347     8646 1
    1483     1327     1570 1
    1484      479      412 1
    1485     1135     1648 1
    1486     6799     6870 1
    1487     6722     7138 1
    1488     8913     9069 1
    1489     7990     8065 1
    1490     5547     7013 1
    1491     4110     4385 1
    1492     9630    10568 1
    1493     2988     2188 1
    1494     5398     6878 1
    1495     8989     9350 1
    1496     4510     4821 1
    1497      645     1098 1
    1498     7287     8551 1
    1499     7410     7421 1
    1500     2597     2939 1
    1501     5383     6755 1
    1502     3818     5071 1
    1503      770      310 1
    1504     6001     6566 1
    1505     6295     6654 1
    1506     7441     7637 1
    1507    10473    10490 1
    1508    10118    10616 1
    1509      890      402 1
    1510     9959    10148 1
    1511     9354    10246 1
    1512     1293      324 1
    1513     2770     2886 1
    1514     5430     5715 1
    1515     7452     7689 1
    1516     9631    10677 1
    1517     5699     6929 1
    1518     4295     4691 1
    1519      792      527 1
    1520     9152    10435 1
    1521     9615     9650 1
    1522     1345      296 1
    1523     4230     4551 1
    1524     4588     5273 1
    1525     5574     6657 1
    1526     2841     3068 1
    1527     9303    10645 1
    1528     9997    10440 1
    1529     3724     4875 1
    1530     4567     4929 1
    1531     5437     5583 1
    1532     1219      263 1
    1533     6408     6662 1
    1534     4217     4322 1
    1535     7230     7510 1
    1536     7166     8633 1
    1537     2219     3496 1
    1538    10110    10321 1
    1539     3405     3470 1
    1540     9642    10602 1
    1541     9400    10210 1
    1542     3603     4281 1
    1543     6061     6629 1
    1544      563      177 1
    1545     7818     8574 1
    1546     5594     5640 1
    1547     2178     2195 1
    1548     5604     6027 1
    1549     3956     4625 1
    1550      411       74 1
    1551     1889     2067 1
    1552     9107    10258 1
    1553     5961     6772 1
    1554     7304     8618 1
    1555     9057    10478 1
    1556     9991    10224 1
    1557     2065     3513 1
    1558     4151     5066 1
    1559     4054     4354 1
    1560     9699    10543 1
    1561     9873    10299 1
    1562     4812     4895 1
    1563    10353    10555 1
    1564     4716     5246 1
    1565     2886     2229 1
    1566     9743    10462 1
    1567     8052     8091 1
    1568     2874     3303 1
    1569      635      378 1
    1570     2958     2468 1
    1571     2782     2084 1
    1572     1243     1656 1
    1573     3092     2199 1
    1574       17     1557 1
    1575     1833     3403 1
    1576    10655    10671 1
    1577      895     7125 1
    1578     6577     7022 1
    1579      568     1413 1
    1580    10121    10349 1
    1581     5587     6186 1
    1582     4699     5123 1
    1583     3177     3281 1
    1584     7264     8209 1
    1585     5428     5771 1
    1586     9627    10115 1
    1587    10089    10419 1
    1588     7210     7252 1
    1589     9004    10328 1
    1590     6211     6888 1
    1591     2354     2241 1
    1592    10133    10142 1
    1593     5863     6473 1
    1594     1978     3385 1
    1595     3752     5221 1
    1596     6656     7091 1
    1597     1681      246 1
    1598     9132     9526 1
    1599     6623     6699 1
    1600     8985     9976 1
    1601     6089     6989 1
    1602     5795     7076 1
    1603     9210     9738 1
    1604     1988     7930 1
    1605     4514     4785 1
    1606     6261     6357 1
    1607     3648     3953 1
    1608     1475      232 1
    1609     2123     3509 1
    1610     2383     1795 1
    1611     3926     5323 1
    1612     5438     5576 1
    1613      632     1446 1
    1614     7261     7642 1
    1615     9496    10320 1
    1616     5724     7067 1
    1617     5582     6478 1
    1618     7776     8600 1
    1619     3255     2025 1
    1620     8895     7994 1
    1621     3849     4567 1
    1622     4281     4902 1
    1623      779      603 1
    1624     1593     3518 1
    1625      930     1148 1
    1626    10217    10392 1
    1627     9101    10571 1
    1628     7670     8463 1
    1629     9624     9637 1
    1630     6727     6735 1
    1631      513     1633 1
    1632     2542     3237 1
    1633     6040     6780 1
    1634     5649     6508 1
    1635     9561    10721 1
    1636     4283     5261 1
    1637     8473     8618 1
    1638     8958    10342 1
    1639     7163     7545 1
    1640     1148     1390 1
    1641     2502     2336 1
    1642     1128      210 1
    1643     5733     6783 1
    1644     8167     8668 1
    1645     1469     1746 1
    1646     5673     5918 1
    1647     7525     8703 1
    1648     5647     7065 1
    1649     7538     8361 1
    1650     4351     4774 1
    1651      818      620 1
    1652     2829     3457 1
    1653     7624     8103 1
    1654     2882     4112 1
    1655     3077     3558 1
    1656    10128    10159 1
    1657     9324    10186 1
    1658      675     1272 1
    1659     9393     9903 1
    1660     2579     2365 1
    1661     4372     4512 1
    1662     1244      359 1
    1663     8050     8674 1
    1664     3695     4890 1
    1665     5718     5894 1
    1666     1396      172 1
    1667     3690     4459 1
    1668     3579     3716 1
    1669     3673     5320 1
    1670     1633      198 1
    1671     9307    10282 1
    1672     8401     8416 1
    1673     8973     9580 1
    1674     4720     4816 1
    1675     7449     8021 1
    1676     2593     1976 1
    1677     3758     3959 1
    1678     7242     7443 1
    1679     6126     9262 1
    1680     9747     9887 1
    1681     3800     5155 1
    1682     3921     4072 1
    1683        7      952 1
    1684     4094     4548 1
    1685     3824     4082 1
    1686     1024      758 1
    1687     7372     8137 1
    1688     1915     6738 1
    1689     9712     9936 1
    1690     8870     7239 1
    1691     8810     7501 1
    1692      558      317 1
    1693     6065     6827 1
    1694     3903     4172 1
    1695     4120     4823 1
    1696     6777     6795 1
    1697     4454     4963 1
    1698    10034    10583 1
    1699      691     1518 1
    1700     1119     1521 1
    1701     9227    10643 1
    1702     2873     1926 1
    1703      735     1189 1
    1704       12     1775 1
    1705     1038     1228 1
    1706     2709     3179 1
    1707     1674      171 1
    1708     1789     2068 1
    1709     2639     2043 1
    1710     2899     2938 1
    1711     3779     5086 1
    1712     9115     9421 1
    1713     7485     8249 1
    1714     7286     8236 1
    1715     3930     4632 1
    1716     8451     8694 1
    1717     7554     7988 1
    1718       31     1618 1
    1719     3273     3274 1
    1720     2449     1915 1
    1721      469     1401 1
    1722     7912     8386 1
    1723     8938    10000 1
    1724     7340     8161 1
    1725      428     1540 1
    1726     4089     4892 1
    1727      697     1232 1
    1728     4689     5324 1
    1729     2500     2432 1
    1730     9587    10247 1
    1731     9258    10285 1
    1732     2431     7944 1
    1733     2783     1822 1
    1734     3683     4629 1
    1735     7114     7124 1
    1736     3598     3744 1
    1737     7343     7775 1
    1738     7321     7682 1
    1739     6609     6690 1
    1740     3802     4380 1
    1741     5515     5977 1
    1742     7946     8107 1
    1743     7620     8398 1
    1744    10208    10579 1
    1745      430     1721 1
    1746     9517    10236 1
    1747     3617     3974 1
    1748      783     1150 1
    1749     2771     3105 1
    1750     4352     4434 1
    1751     5514     5864 1
    1752     4243     4647 1
    1753     3887     4079 1
    1754     4048     4625 1
    1755     2589     2001 1
    1756     9330    10541 1
    1757     2058     2153 1
    1758     1102     1640 1
    1759     3681     4747 1
    1760     7354     8482 1
    1761     6290     7078 1
    1762     5704     6809 1
    1763      612     1251 1
    1764     1948     2057 1
    1765     3718     4068 1
    1766     4027     4431 1
    1767     5897     6150 1
    1768     4760    10544 1
    1769     7858     8299 1
    1770     9548    10298 1
    1771     1710      113 1
    1772     1141     1427 1
    1773     1163     1562 1
    1774     8943     9409 1
    1775      451      501 1
    1776     2541     3056 1
    1777     2492     2599 1
    1778     3996     5121 1
    1779     3131     1935 1
    1780     6192     6962 1
    1781      768      304 1
    1782     3932     5047 1
    1783     4477     4828 1
    1784     9318    10494 1
    1785     8580     8689 1
    1786     5430     5752 1
    1787     1265      196 1
    1788     3317     2067 1
    1789     4015     4832 1
    1790     3624     5163 1
    1791     6179     6535 1
    1792       52      440 1
    1793    10415    10444 1
    1794     1795     2238 1
    1795     9046    10143 1
    1796     8175     8433 1
    1797     8937    10585 1
    1798     9074    10360 1
    1799     4043     4809 1
    1800     4544     4761 1
    1801     4419     5147 1
    1802     5471     6788 1
    1803     5419     6483 1
    1804     1799     1937 1
    1805     7258     8474 1
    1806    10292    10718 1
    1807      641     1154 1
    1808     8620     8718 1
    1809      915      503 1
    1810     1062      400 1
    1811     1089     5262 1
    1812     1528     1657 1
    1813      637     1117 1
    1814     7293     7948 1
    1815     7561     8455 1
    1816     9187    10157 1
    1817     7167     7173 1
    1818     6417     7030 1
    1819     7968     8080 1
    1820     4500     4581 1
    1821     2794     3195 1
    1822     1258     1470 1
    1823     8134     8251 1
    1824     5749     6471 1
    1825     5427     6510 1
    1826     3791     5045 1
    1827     4318     4857 1
    1828     5395     6360 1
    1829     6502     7091 1
    1830     3889     4022 1
    1831     5569     6603 1
    1832     7962     7975 1
    1833     4593     5022 1
    1834     1163     1222 1
    1835     8392     8528 1
    1836     8020     8070 1
    1837       33     1678 1
    1838     1026     1354 1
    1839     9102     9213 1
    1840      834     1504 1
    1841     5533     6903 1
    1842     2359     2156 1
    1843     8760     7324 1
    1844     8238     8440 1
    1845     1247     7060 1
    1846     1170     1171 1
    1847     3942     5122 1
    1848     8217     8415 1
    1849     3934     4988 1
    1850     2333     3192 1
    1851     7264     7622 1
    1852      678      361 1
    1853     3377     5305 1
    1854      749      250 1
    1855     5865     6195 1
    1856      796     1288 1
    1857     1096      176 1
    1858    10218    10523 1
    1859     4301     4881 1
    1860     5466     6064 1
    1861      787      476 1
    1862     8517     8597 1
    1863     4001     4348 1
    1864     4420     5295 1
    1865     7293     8180 1
    1866     2858     1804 1
    1867     4158     4844 1
    1868      717      580 1
    1869     9198    10162 1
    1870     8839     8671 1
    1871     5079     5154 1
    1872     8765     8382 1
    1873     7583     7793 1
    1874     9062    10294 1
    1875      289      235 1
    1876     3811     3852 1
    1877     4603     4906 1
    1878     5686     5785 1
    1879     2849     2153 1
    1880     4357     4796 1
    1881       22       28 1
    1882      513     1118 1
    1883     8373     8643 1
    1884     4098     5197 1
    1885     1872     2282 1
    1886     3435     3504 1
    1887     1869     2174 1
    1888      888      621 1
    1889     2583     1921 1
    1890     2796     3497 1
    1891     5543     6935 1
    1892     1199     1758 1
    1893     7250     7448 1
    1894     7705     8267 1
    1895     7659     8255 1
    1896     7378     7744 1
    1897     9295     9660 1
    1898     9012     9495 1
    1899     2949     3346 1
    1900     6562     6859 1
    1901     7303     8219 1
    1902     4261     4832 1
    1903     2606     3299 1
    1904     5842     6126 1
    1905     5898     6410 1
    1906      794     1396 1
    1907     3205     2156 1
    1908     7746     7885 1
    1909     3337     1955 1
    1910     7460     8186 1
    1911     9643    10075 1
    1912     8879     7426 1
    1913     6119     7010 1
    1914     2918     2484 1
    1915     2860     2145 1
    1916     9499    10055 1
    1917     2128     3967 1
    1918     5464     6548 1
    1919     5507     6167 1
    1920     2546     2850 1
    1921     9689    10096 1
    1922     7419     7806 1
    1923    10045    10581 1
    1924     2384     2017 1
    1925     3943     3968 1
    1926     2457     3159 1
    1927     5982     6963 1
    1928     3604     5144 1
    1929     9075     9265 1
    1930     7798     8276 1
    1931     5699     6695 1
    1932     8181     8189 1
    1933     5776     6701 1
    1934     7152     8507 1
    1935     8289     8630 1
    1936      940      339 1
    1937     8810     8625 1
    1938     7207     8321 1
    1939     8779     8022 1
    1940     2574     3238 1
    1941     4276     4922 1
    1942     9350    10369 1
    1943      567     1574 1
    1944     7224     8408 1
    1945     4000     4023 1
    1946     5891     6898 1
    1947     7896     8063 1
    1948     7280     9168 1
    1949     5384     5849 1
    1950     2867     3398 1
    1951     8881     8057 1
    1952      520      116 1
    1953     4170     4731 1
    1954      331      214 1
    1955     8882     7697 1
    1956     9714    10356 1
    1957     7401     7737 1
    1958      897      993 1
    1959     5450     6865 1
    1960     8993     9433 1
    1961     8881     7778 1
    1962     5514     6415 1
    1963     1348      105 1
    1964     7428     8683 1
    1965     3756     4149 1
    1966     7390     8143 1
    1967     8245     9549 1
    1968     6791     7127 1
    1969      698      112 1
    1970     7953     8068 1
    1971     3221     2099 1
    1972      492     1291 1
    1973     8949     9729 1
    1974     1900     2227 1
    1975     3262     2154 1
    1976     3938     5264 1
    1977     2344     2433 1
    1978     4775     4875 1
    1979     9041    10669 1
    1980     5419     5829 1
    1981     4453     5198 1
    1982     2536     2633 1
    1983     1069     1266 1
    1984     6202     7719 1
    1985     9700    10211 1
    1986     3718    10545 1
    1987     9949    10217 1
    1988      674      391 1
    1989     9035    10437 1
    1990     1251     1607 1
    1991    10334    10439 1
    1992     3669     4422 1
    1993     7261     7798 1
    1994     2923     1884 1
    1995     5530     5924 1
    1996     1126     1497 1
    1997     8954     8960 1
    1998     3714     4615 1
    1999     5560     6624 1
    2000     3080     2104 1
    2001     3600     4164 1
    2002     3562     4817 1
    2003     1906     3527 1
    2004     7145     8523 1
    2005     6526     7125 1
    2006     6130     6143 1
    2007     1300     1544 1
    2008     7239     8652 1
    2009     6215     6847 1
    2010    10068    10439 1
    2011     5735     6433 1
    2012      821     1481 1
    2013     6133     6601 1
    2014     6232     6376 1
    2015     7487     8146 1
    2016     3955     5071 1
    2017     7483     7989 1
    2018      840     1551 1
    2019     8991    10040 1
    2020     8167     8202 1
    2021     8448     8520 1
    2022     4000     4215 1
    2023     3819     5141 1
    2024     3471     3520 1
    2025     5552     6283 1
    2026     8756     7541 1
    2027     5680     5835 1
    2028     8455     8536 1
    2029     1069     1781 1
    2030     3751     4604 1
    2031     3989     4839 1
    2032     7730     7841 1
    2033     3804     4145 1
    2034     3293     2127 1
    2035     5810     6689 1
    2036     1869     3391 1
    2037     9091     9099 1
    2038     3993     5289 1
    2039     2617     2344 1
    2040     6361     6915 1
    2041      464     1722 1
    2042       23      112 1
    2043      472      240 1
    2044     1428     1700 1
    2045     2703     3484 1
    2046     2819     2826 1
    2047     1279      317 1
    2048     7361     7945 1
    2049     5766    10687 1
    2050      342     1557 1
    2051     5743     6365 1
    2052     3691     4457 1
    2053     1163     1600 1
    2054     1731     1506 1
    2055     3856     4778 1
    2056     3563     4267 1
    2057     6002     6015 1
    2058     3015     2462 1
    2059     9275     9883 1
    2060     4629     4633 1
    2061      943      633 1
    2062     7357     8381 1
    2063     6933     7058 1
    2064      528      359 1
    2065     3774     4710 1
    2066      829      561 1
    2067     9936     9985 1
    2068     4392     5058 1
    2069     6570     7059 1
    2070     6557     6889 1
    2071     9622    10170 1
    2072     3730     4729 1
    2073     8797     8284 1
    2074     5477     5572 1
    2075     6835     6888 1
    2076     6527     6584 1
    2077     3797    10001 1
    2078     5374     5480 1
    2079     2505     2190 1
    2080    10448    10669 1
    2081     3129     3170 1
    2082      918      411 1
    2083     9104    10618 1
    2084     9280     9588 1
    2085      576     1564 1
    2086     3107     3486 1
    2087     3686     5230 1
    2088     5522     7079 1
    2089     3768     5235 1
    2090      382     1553 1
    2091     9885     9909 1
    2092     9741    10663 1
    2093     8446     8657 1
    2094     7245     7356 1
    2095     4509     4612 1
    2096     9693    10630 1
    2097     1133       71 1
    2098      829      138 1
    2099     9700     9769 1
    2100     9119     9766 1
    2101     9169     9892 1
    2102     6871     7126 1
    2103     4783     4810 1
    2104     2303     2327 1
    2105     5527     5735 1
    2106     3745     4712 1
    2107    10230    10433 1
    2108     9866    10454 1
    2109      968     1145 1
    2110     4333     4867 1
    2111      343     1728 1
    2112     3667     4764 1
    2113      493     1268 1
    2114     3987     4240 1
    2115     2524     2736 1
    2116     9112     9990 1
    2117     2209     3452 1
    2118     6736     7061 1
    2119      739     1487 1
    2120     7336     7953 1
    2121     9037     9150 1
    2122     5473     5813 1
    2123     2694     3007 1
    2124     4834     5206 1
    2125     2935     3459 1
    2126     2581     3074 1
    2127      724     1069 1
    2128     4107     4448 1
    2129     9476    10451 1
    2130     2840     3541 1
    2131     8766     8236 1
    2132     6339     6865 1
    2133     3742     4740 1
    2134       35     5962 1
    2135     7381     8086 1
    2136     5817     6651 1
    2137     4440     4490 1
    2138     9297     9620 1
    2139     9484     9823 1
    2140     3800     4506 1
    2141     9731    10395 1
    2142     5709     5990 1
    2143     7193     8610 1
    2144     3959     4576 1
    2145     2567     1968 1
    2146     4111     4127 1
    2147     5406     6396 1
    2148     8803     7381 1
    2149     7562     8600 1
    2150     5802     5833 1
    2151     7607     7679 1
    2152     5851     7011 1
    2153     7363     8058 1
    2154     5801     6891 1
    2155     8157     8330 1
    2156     8826     8264 1
    2157     7746     8638 1
    2158     7596     7735 1
    2159       36      826 1
    2160     8124     8610 1
    2161     8921     7782 1
    2162     8854     8171 1
    2163     7918     8482 1
    2164     7270     7967 1
    2165     6968     7806 1
    2166     5553     6377 1
    2167      781      439 1
    2168     7411     7952 1
    2169     2418     2160 1
    2170     8937     9017 1
    2171     7579     8361 1
    2172     2422     2434 1
    2173     5787     6903 1
    2174     8584     8657 1
    2175     3104     2301 1
    2176    10649    10711 1
    2177      368     1755 1
    2178     9414     9729 1
    2179     8207     8211 1
    2180     9895    10267 1
    2181     8825     7398 1
    2182     9103    10117 1
    2183     2586     3304 1
    2184     2327     1866 1
    2185      730      313 1
    2186     1002     1394 1
    2187     1322      199 1
    2188     5436     6623 1
    2189     2623     2109 1
    2190     5551     5947 1
    2191     3719     4179 1
    2192     4432     5227 1
    2193     4416     5029 1
    2194     8820     8044 1
    2195     1372     1699 1
    2196      131      151 1
    2197     5914     6679 1
    2198     4223     5104 1
    2199     7996     8608 1
    2200       50      463 1
    2201     6391     6580 1
    2202     5410     7108 1
    2203      646      344 1
    2204     1302      286 1
    2205     1805     1811 1
    2206     7663     7735 1
    2207     9023    10313 1
    2208     9072     9271 1
    2209     2779     3414 1
    2210     4213     4848 1
    2211     9547    10480 1
    2212     5935     6791 1
    2213     2589     2059 1
    2214     7602     7713 1
    2215     5831     6308 1
    2216     2901     3459 1
    2217      974      999 1
    2218      814      827 1
    2219     2628     1067 1
    2220     1696     1570 1
    2221     5592     5964 1
    2222      576     1175 1
    2223     4373     4877 1
    2224     5458     5660 1
    2225     9378    10095 1
    2226     9473    10153 1
    2227     3973     4040 1
    2228     5555     5684 1
    2229     9408    10343 1
    2230     1716       91 1
    2231     9707    10720 1
    2232      527     1323 1
    2233      705     4654 1
    2234     8751     8247 1
    2235     1994     2111 1
    2236     8344     8488 1
    2237     9417    10283 1
    2238       92      108 1
    2239     2399     3356 1
    2240     4250     4890 1
    2241      950     1511 1
    2242     9668    10696 1
    2243     3566     3997 1
    2244     3933     4033 1
    2245     4693     4880 1
    2246      805      583 1
    2247     9248     9488 1
    2248     6376     9644 1
    2249     6102     6338 1
    2250      824     1129 1
    2251     4566     4974 1
    2252     6219     6302 1
    2253     2874      457 1
    2254     2992     3183 1
    2255     1193     1517 1
    2256     5173     9094 1
    2257     5889     6231 1
    2258     6357     6770 1
    2259     2894     1908 1
    2260      745     1394 1
    2261     9203    10402 1
    2262     1370     1729 1
    2263     8069     8542 1
    2264     5695     6304 1
    2265      114      213 1
    2266     7161     7297 1
    2267     6178     6224 1
    2268     3354     3478 1
    2269     5656     6678 1
    2270     7316     7630 1
    2271     6207     6287 1
    2272     2958     3488 1
    2273     1637      251 1
    2274     8882     7613 1
    2275      377     1756 1
    2276      614     1547 1
    2277     4742     5245 1
    2278     3698     4715 1
    2279      815     1383 1
    2280     1000     1361 1
    2281     7423     8471 1
    2282     2897     3429 1
    2283     1636      238 1
    2284     1862     2293 1
    2285     7427     8579 1
    2286     2676     3511 1
    2287     2830     3097 1
    2288      329      141 1
    2289     3157     3384 1
    2290     9831     9916 1
    2291     2465     3288 1
    2292      523     1544 1
    2293     9279     9784 1
    2294      909     1734 1
    2295     2803     2385 1
    2296     1401     1449 1
    2297     8081     8500 1
    2298       26     1400 1
    2299     9070    10263 1
    2300     7216     8393 1
    2301     8770     7388 1
    2302     6249     6990 1
    2303     8233     8284 1
    2304     9612     9914 1
    2305     2643     2943 1
    2306      434      334 1
    2307     2712     2790 1
    2308     3989     4499 1
    2309     9743    10018 1
    2310     1174      169 1
    2311     3972     4193 1
    2312     7355     7471 1
    2313     5501     6766 1
    2314     3870     4297 1
    2315     1826     1911 1
    2316     3739     5192 1
    2317     9591     9659 1
    2318     1882     2083 1
    2319     7868     8211 1
    2320     7224     8548 1
    2321     1004      109 1
    2322     6325     9074 1
    2323     5701     5869 1
    2324     2312     2047 1
    2325     2672     3176 1
    2326     6040     6789 1
    2327     1203     1264 1
    2328     5696     6972 1
    2329      548      563 1
    2330     7954     8250 1
    2331     7941     8437 1
    2332     7516     7614 1
    2333     9141    10201 1
    2334     7483     8276 1
    2335     8001     8615 1
    2336     1028      780 1
    2337     1895     3492 1
    2338     6758     6786 1
    2339     2666     3452 1
    2340     4501     4637 1
    2341     1009     1181 1
    2342     1088      146 1
    2343     6262     6798 1
    2344     2505     2665 1
    2345     1211      394 1
    2346     7146     7878 1
    2347     8910     8534 1
    2348     5528     6407 1
    2349     7295     8195 1
    2350     3055     1874 1
    2351      541     1491 1
    2352     3201     1861 1
    2353     1187     1507 1
    2354     2541     3243 1
    2355      360      213 1
    2356     5938     9782 1
    2357     4321     5252 1
    2358     7943     8700 1
    2359     4549     4669 1
    2360     1170     1285 1
    2361     5416     6957 1
    2362     9158     9376 1
    2363    10467    10586 1
    2364      455     1079 1
    2365     9861    10412 1
    2366     9829    10278 1
    2367     5981     6837 1
    2368     3690     5235 1
    2369     2369     3463 1
    2370     1193     6996 1
    2371     3021     3279 1
    2372     1017      596 1
    2373     5960     6619 1
    2374     3254     1944 1
    2375     8278     8595 1
    2376     7168     8548 1
    2377     5674     5735 1
    2378     1723     1653 1
    2379      692     1646 1
    2380     5873     6712 1
    2381     2085     3471 1
    2382     7201     8245 1
    2383     1456     1715 1
    2384    10366    10637 1
    2385      510      362 1
    2386     1851     2252 1
    2387     4281     4717 1
    2388     5525     5566 1
    2389     3749     4175 1
    2390      650     1609 1
    2391     6163     6303 1
    2392     2307     3494 1
    2393     5801     6747 1
    2394    10152    10317 1
    2395     3826     4947 1
    2396     2137     3459 1
    2397     5586     6837 1
    2398     3705     4656 1
    2399     2513     2538 1
    2400     5504     6857 1
    2401     3653     3875 1
    2402     5619     5926 1
    2403     6103     6455 1
    2404     5901     6854 1
    2405       37     1656 1
    2406     1023      788 1
    2407      599     5388 1
    2408     9122    10261 1
    2409     8898     7899 1
    2410     1923     2274 1
    2411     1366     1369 1
    2412     5453     6497 1
    2413     4396     5168 1
    2414     3054     3363 1
    2415     5923     6316 1
    2416     7384     7800 1
    2417     3128     1952 1
    2418     5662     6568 1
    2419     7413     8353 1
    2420     7317     7705 1
    2421    10068    10689 1
    2422     5790     7082 1
    2423     9526     9802 1
    2424     2694     2906 1
    2425     4542     5072 1
    2426      624     1448 1
    2427     1968     3445 1
    2428     5501     5862 1
    2429     2779     2384 1
    2430     2939     2332 1
    2431     7814     8444 1
    2432     3659     4467 1
    2433     9394    10022 1
    2434     3302     2192 1
    2435     3577     3628 1
    2436       42      475 1
    2437     6397     6404 1
    2438     8823     7799 1
    2439     3711     4437 1
    2440     9205     9216 1
    2441     8719     8463 1
    2442     8865     7309 1
    2443     3770     4438 1
    2444     4256     5099 1
    2445     5470     6561 1
    2446     8835     7524 1
    2447      965     1743 1
    2448     6277     6990 1
    2449     7698     8405 1
    2450     9261     9603 1
    2451     8752     8140 1
    2452     7654     7790 1
    2453     3707     4157 1
    2454     1001      384 1
    2455     1165      180 1
    2456     8950    10096 1
    2457     8880     7333 1
    2458     9731     9835 1
    2459     9246     9982 1
    2460     5544     5973 1
    2461     4211     4666 1
    2462     8925     8687 1
    2463      404     1540 1
    2464     8617     8678 1
    2465     8356     8661 1
    2466     1233      400 1
    2467     2669     2354 1
    2468     9282    10150 1
    2469     6779     7047 1
    2470     9247     9331 1
    2471     3157     2279 1
    2472     4596     4783 1
    2473     6018     7125 1
    2474     4318     4547 1
    2475     5740     7048 1
    2476        4      585 1
    2477      926     1717 1
    2478     4559     5201 1
    2479     3644     5050 1
    2480     9344    10450 1
    2481      701     1773 1
    2482     9651     9755 1
    2483     3739     4104 1
    2484     5625     6798 1
    2485     2619     3395 1
    2486     9971    10158 1
    2487     9885    10697 1
    2488     6084     6623 1
    2489     2610     2012 1
    2490     5407     6321 1
    2491     4960     5067 1
    2492     2770     2355 1
    2493      349      223 1
    2494     9073    10091 1
    2495     2714     2232 1
    2496      981     1712 1
    2497     7993     8613 1
    2498     2032     2033 1
    2499     4361     4964 1
    2500     9323     9908 1
    2501     8819     7571 1
    2502     9089    10287 1
    2503     6288     6367 1
    2504     5574     6879 1
    2505     2823     1922 1
    2506     6037     6229 1
    2507     3055     2243 1
    2508     2389     3323 1
    2509     4586     5107 1
    2510     5599     5943 1
    2511     3669     4571 1
    2512     1095     1334 1
    2513     2120     2295 1
    2514     9953    10578 1
    2515      811      507 1
    2516     2338     3163 1
    2517     6124     7067 1
    2518     1135      363 1
    2519     7662     8467 1
    2520     2890     2350 1
    2521     7570     8556 1
    2522    10328    10700 1
    2523     4685     4809 1
    2524     7965     8529 1
    2525     2441     3262 1
    2526     5484     5541 1
    2527     2953     2108 1
    2528     5404     6823 1
    2529      952      562 1
    2530      852      754 1
    2531     2705     2122 1
    2532     9527    10614 1
    2533     3912     4954 1
    2534     9125     9680 1
    2535     8266     8411 1
    2536     1802     1808 1
    2537     2378     2101 1
    2538     9658    10050 1
    2539     9578    10613 1
    2540     2516     3098 1
    2541     6358     6922 1
    2542     9985    10393 1
    2543     5372     6023 1
    2544     2731     3298 1
    2545     2550     3544 1
    2546      828     1599 1
    2547     9839    10611 1
    2548      751     1290 1
    2549     3218     3411 1
    2550     3129     3357 1
    2551     2743     2263 1
    2552     6101     6553 1
    2553     2390     2125 1
    2554     2447     2058 1
    2555     5797     7089 1
    2556      969      595 1
    2557     7255     8174 1
    2558     2077     3536 1
    2559     5840     6319 1
    2560     6311     6528 1
    2561       52     1328 1
    2562     2117     3422 1
    2563     5852     6016 1
    2564     4136     4549 1
    2565     3214     2077 1
    2566      548      313 1
    2567     7573     8690 1
    2568     5987     6801 1
    2569     9599     9801 1
    2570     8763     7702 1
    2571     4583     4878 1
    2572     4959     5245 1
    2573     9223    10475 1
    2574      894     1145 1
    2575     2360      838 1
    2576     6048     6441 1
    2577     6074     6226 1
    2578      629     6030 1
    2579     6054     6443 1
    2580     5685     5961 1
    2581     9759    10325 1
    2582     9368     9901 1
    2583     7171     8013 1
    2584     4056     4772 1
    2585     2832     2436 1
    2586     1340      371 1
    2587     7614     8325 1
    2588     5397     6423 1
    2589     1848     3380 1
    2590    10386    10403 1
    2591       90      122 1
    2592     5664     7123 1
    2593      853     1466 1
    2594     9007    10660 1
    2595     9322     9459 1
    2596     3057     3206 1
    2597     1108     1527 1
    2598     5600     6832 1
    2599     6859     7774 1
    2600      865     1338 1
    2601     2303     1941 1
    2602     3729     5243 1
    2603     8312     8712 1
    2604     1118      227 1
    2605    10295    10557 1
    2606     2756     2931 1
    2607     4623     4823 1
    2608      293     1679 1
    2609     2689     1987 1
    2610     2634     3529 1
    2611     1146       73 1
    2612     7452     7874 1
    2613     7570     7987 1
    2614     1241      369 1
    2615     9331    10002 1
    2616     9358     9390 1
    2617     8793     8025 1
    2618     4928     5197 1
    2619     2255     3547 1
    2620    10201    10534 1
    2621      437      223 1
    2622     7186     8208 1
    2623     1678      170 1
    2624     1411     1614 1
    2625     9083     9584 1
    2626     5441     6970 1
    2627     3808     4497 1
    2628     5917     6620 1
    2629     7281     7943 1
    2630     5616     6762 1
    2631     5601     5827 1
    2632     3638     3953 1
    2633     5949     6859 1
    2634     9885    10195 1
    2635     2459     3202 1
    2636     9327     9616 1
    2637     1760     4107 1
    2638     1246      291 1
    2639     5967     6605 1
    2640     7195     8180 1
    2641     5723     5762 1
    2642    10156    10219 1
    2643     9169    10618 1
    2644     8941     9243 1
    2645      428       90 1
    2646     3313     1824 1
    2647     9708    10222 1
    2648       20      760 1
    2649     6196     6575 1
    2650     5891     6955 1
    2651     2160     3477 1
    2652      807     1423 1
    2653     8452     8642 1
    2654     3588     3634 1
    2655     6635     6784 1
    2656     5360     6388 1
    2657     8997     9791 1
    2658     8802     8662 1
    2659     4115     4879 1
    2660     3324     2211 1
    2661     3907     5256 1
    2662     6238     6508 1
    2663     5532     6592 1
    2664     1029     1284 1
    2665     9995    10480 1
    2666     9005    10185 1
    2667     9751    10045 1
    2668     4313     4720 1
    2669     4931     4939 1
    2670     3740     5042 1
    2671     2926     3266 1
    2672      648     6164 1
    2673     1168     1570 1
    2674     8978     9065 1
    2675     1099      337 1
    2676     1172     1706 1
    2677     5569     5867 1
    2678     6016     6454 1
    2679     6156     6262 1
    2680     7204     8458 1
    2681     6028     6348 1
    2682     9661    10651 1
    2683     1663      187 1
    2684     7220     7639 1
    2685     3013     2358 1
    2686     5409     6286 1
    2687     7936     8046 1
    2688     9454    10595 1
    2689     3613     4601 1
    2690      758      491 1
    2691      478      162 1
    2692     2357     2368 1
    2693     2537     2558 1
    2694     1062      163 1
    2695     8190     8600 1
    2696     8792     8314 1
    2697     3824     4045 1
    2698      549      121 1
    2699     5491     6310 1
    2700     4228     5237 1
    2701     2414     2460 1
    2702      611      268 1
    2703     3689     3746 1
    2704     7865     8454 1
    2705      452      592 1
    2706     1911     3448 1
    2707      999     1406 1
    2708     8265     8391 1
    2709     4000     5297 1
    2710     9305    10182 1
    2711     1757       77 1
    2712     2017     3523 1
    2713     1342     1385 1
    2714     2535     2768 1
    2715     4117     4884 1
    2716     7181     8447 1
    2717     5918     6600 1
    2718     7942     8319 1
    2719     9104     9496 1
    2720     8915     7616 1
    2721     4005     4036 1
    2722     7672     8685 1
    2723     2891     2280 1
    2724     9638    10156 1
    2725      309     1764 1
    2726      521     1317 1
    2727     2397     1941 1
    2728      676     1079 1
    2729      717      649 1
    2730     2624     2390 1
    2731     5554     6623 1
    2732     2712     1790 1
    2733     8870     7284 1
    2734     7285     7841 1
    2735     7980     8003 1
    2736     8862     7581 1
    2737     8202     8648 1
    2738     8761     8045 1
    2739     4332     4345 1
    2740     2126     2292 1
    2741     8857     7255 1
    2742     8830     7402 1
    2743     4332     4848 1
    2744     1342      178 1
    2745     1271      363 1
    2746     1859     3536 1
    2747     6294     6721 1
    2748     4884     5250 1
    2749     1100      269 1
    2750     5788     9102 1
    2751     8034     8486 1
    2752     8837     8337 1
    2753     2566     2982 1
    2754      297     1588 1
    2755     7269     8399 1
    2756     9332    10000 1
    2757     3108     1916 1
    2758    10410    10470 1
    2759     2080     2276 1
    2760     1037      192 1
    2761     8975     9748 1
    2762     3073     2382 1
    2763     7684     8385 1
    2764     2805     2839 1
    2765     4484     4630 1
    2766     9751    10576 1
    2767      442     1528 1
    2768     6248     6957 1
    2769     3057     2144 1
    2770     7312     8491 1
    2771     2714     2196 1
    2772     1987     2164 1
    2773     6407     6672 1
    2774     9583    10097 1
    2775     5778     6976 1
    2776    10200    10277 1
    2777     9611    10644 1
    2778     6385     6855 1
    2779     4139     5109 1
    2780     3051     3153 1
    2781     9279    10666 1
    2782      319      356 1
    2783     7223     7654 1
    2784     9353    10042 1
    2785     5958     6384 1
    2786     9036     9446 1
    2787     3342     1786 1
    2788     6147     6428 1
    2789     7986     9518 1
    2790     8827     7374 1
    2791     9009    10694 1
    2792     4508     4792 1
    2793      344     1567 1
    2794     3320     1988 1
    2795     7164     7278 1
    2796     7624     8387 1
    2797     8921     8534 1
    2798     8289     8518 1
    2799     8970     9120 1
    2800     7724     7939 1
    2801     8955     9781 1
    2802     9017    10021 1
    2803     8941     9387 1
    2804     5486     6778 1
    2805     6387     7069 1
    2806     9048    10689 1
    2807     7172     8540 1
    2808     5166     5347 1
    2809      477      324 1
    2810     5380     6529 1
    2811     5659     6778 1
    2812     9666    10569 1
    2813    10435    10540 1
    2814     4044     4805 1
    2815     5848     5876 1
    2816     2415     3231 1
    2817     6049     7138 1
    2818     2347     3204 1
    2819     7503     7652 1
    2820     6530     6990 1
    2821     3758     4891 1
    2822     9065    10606 1
    2823     5938     6283 1
    2824     4456     5298 1
    2825      350     1673 1
    2826     9387    10311 1
    2827     9594    10034 1
    2828     9934     9955 1
    2829     1409      421 1
    2830     7317     7918 1
    2831     5477     6424 1
    2832     7237     7518 1
    2833     9772    10038 1
    2834     3825     3911 1
    2835     9297     9474 1
    2836     3533     3538 1
    2837     5797     6731 1
    2838     1331       62 1
    2839      962     1503 1
    2840     4185     5351 1
    2841     2118     3559 1
    2842     4211     4874 1
    2843    10141    10696 1
    2844     7839     8363 1
    2845     2470     7724 1
    2846     9676    10224 1
    2847     3681     4112 1
    2848     4504     4977 1
    2849     4777     4943 1
    2850     3196     3396 1
    2851     5781     6698 1
    2852     3874     3881 1
    2853      884     1402 1
    2854     3141     1844 1
    2855     3984     4441 1
    2856     5650     7059 1
    2857     7635     8005 1
    2858     8787     8250 1
    2859     1269      323 1
    2860     3843     5270 1
    2861     4160     4589 1
    2862     5465     6565 1
    2863     3572     3734 1
    2864     2501     2139 1
    2865     9061     9998 1
    2866    10189    10705 1
    2867     3866     5333 1
    2868     6406     6878 1
    2869    10335    10413 1
    2870      662      250 1
    2871     5641     6666 1
    2872     1399      125 1
    2873     7293     8184 1
    2874     3818     4965 1
    2875     5420     6959 1
    2876     2594     2887 1
    2877     1680       73 1
    2878     4417     5181 1
    2879     1815     1844 1
    2880     7969     8630 1
    2881     2895     2286 1
    2882     4874     5199 1
    2883     9812     9897 1
    2884     1942     2259 1
    2885     4371     4597 1
    2886     5903     6237 1
    2887     8844     8378 1
    2888     6601     7142 1
    2889      613     1670 1
    2890     8199     8451 1
    2891     7494     8534 1
    2892     9683     9891 1
    2893     2032     2212 1
    2894     8648     8699 1
    2895     7681     7708 1
    2896     4868     5181 1
    2897     7668     7937 1
    2898     4828     4870 1
    2899     5452     6299 1
    2900     7533     8045 1
    2901     3885     4130 1
    2902     5323     5334 1
    2903     5915     6429 1
    2904     1725      149 1
    2905     5515     5881 1
    2906     3056     2096 1
    2907     5001     5108 1
    2908     5668     5991 1
    2909       32      424 1
    2910     9042    10626 1
    2911     7800     8684 1
    2912       13     1241 1
    2913     1856     2296 1
    2914     9819    10556 1
    2915     5689     6102 1
    2916      845     1013 1
    2917     4394     5204 1
    2918     7150     7429 1
    2919     2453     2185 1
    2920     2191     2263 1
    2921     9218    10085 1
    2922     2313     3319 1
    2923      953      176 1
    2924     4000     4935 1
    2925      574     1428 1
    2926     3832     4654 1
    2927     5672     5679 1
    2928     5608     6372 1
    2929     4508     5186 1
    2930     2656     2848 1
    2931     3079     1945 1
    2932     4250     5348 1
    2933      912      561 1
    2934     8956    10426 1
    2935     6803     6828 1
    2936      848     1459 1
    2937     2777     1924 1
    2938     8835     7249 1
    2939     3784     4771 1
    2940     1277     1582 1
    2941     1045     1309 1
    2942     9666    10413 1
    2943     9253     9498 1
    2944     4606     4795 1
    2945     5716     6976 1
    2946     7191     7194 1
    2947     2989     2052 1
    2948     9054     9384 1
    2949     4440     5077 1
    2950     2574     2444 1
    2951     5171     5212 1
    2952     3157     3481 1
    2953     8778     7307 1
    2954     2619     2288 1
    2955     7399     8651 1
    2956     9796    10408 1
    2957     3081     2231 1
    2958     3650     3990 1
    2959     2869     7939 1
    2960      693      786 1
    2961     6585     7130 1
    2962     4263     5103 1
    2963     9677    10254 1
    2964    10262    10487 1
    2965     1332      213 1
    2966     3100     2311 1
    2967     6155     6593 1
    2968     3966     5065 1
    2969     8781     7339 1
    2970     1667      213 1
    2971     1011     1637 1
    2972     2833     3101 1
    2973     5592     6997 1
    2974     2404     2217 1
    2975     9827    10535 1
    2976     9477     9749 1
    2977     9428     9701 1
    2978     8863     8158 1
    2979     9563    10698 1
    2980     3279     1883 1
    2981     2821     1973 1
    2982     9135    10200 1
    2983     8955     9047 1
    2984     9185    10521 1
    2985      870     1340 1
    2986     9481    10433 1
    2987     5834     6183 1
    2988    10300    10718 1
    2989     1921     2109 1
    2990     4274     4430 1
    2991     5673     6816 1
    2992     7059     7133 1
    2993     6045     6509 1
    2994     4137     4298 1
    2995      905     1192 1
    2996     6282     6832 1
    2997     5895     6989 1
    2998      710     1353 1
    2999      819     1376 1
    3000    10085    10112 1
    3001     1107     1766 1
    3002      699     1465 1
    3003      316      323 1
    3004     4374     4546 1
    3005     1152     1531 1
    3006     7360     8666 1
    3007     1175     1676 1
    3008     8963     9429 1
    3009     8072     8151 1
    3010     5406     6982 1
    3011     7147     7712 1
    3012     7634     7932 1
    3013     4358     4466 1
    3014     5785     6771 1
    3015     6049     6685 1
    3016     9713    10385 1
    3017     8404     8567 1
    3018     2322     2263 1
    3019      407     1508 1
    3020     7778     8612 1
    3021     8770     8791 1
    3022     5768     6363 1
    3023     6563     7117 1
    3024     7927     8213 1
    3025     2603     2490 1
    3026     4559     5173 1
    3027     5321     5327 1
    3028     9385    10433 1
    3029     9471    10477 1
    3030     8032     8550 1
    3031     1009      398 1
    3032      501       90 1
    3033     4255     4970 1
    3034     3618     4963 1
    3035      931      771 1
    3036      908       83 1
    3037     8886     7833 1
    3038     3180     1975 1
    3039      940     1762 1
    3040     8833     8644 1
    3041     6371     6773 1
    3042     5655     6932 1
    3043     4449     4645 1
    3044     4322     5319 1
    3045     8786     8227 1
    3046      932      669 1
    3047     7995     8098 1
    3048     6304     7121 1
    3049     3203     1920 1
    3050     2514     2092 1
    3051     3960     4394 1
    3052     3809     4562 1
    3053     9840    10402 1
    3054     2784     2270 1
    3055      902     1524 1
    3056     9328    10549 1
    3057     3994     4160 1
    3058     2916     3231 1
    3059     4103     4130 1
    3060      430     1541 1
    3061     1125     1236 1
    3062    10066    10676 1
    3063     6143     6958 1
    3064      546      377 1
    3065     9203     9470 1
    3066     1265     1649 1
    3067     5937     6660 1
    3068     9054     9393 1
    3069     6108     6497 1
    3070     2576     2686 1
    3071     5535     6586 1
    3072    10031    10559 1
    3073     9817    10572 1
    3074     3006     3103 1
    3075     5971    10040 1
    3076    10484    10658 1
    3077     9176    10527 1
    3078     1512     1647 1
    3079     6466     6807 1
    3080     4519     4858 1
    3081     6887     7135 1
    3082     2931     2462 1
    3083     3084     1819 1
    3084     3709     5064 1
    3085     9162     9486 1
    3086     4143     4700 1
    3087     7934     8623 1
    3088     4886     5131 1
    3089     4278     4834 1
    3090     5923     6727 1
    3091     4258     4873 1
    3092      449     1524 1
    3093     9211     9330 1
    3094     7359     8242 1
    3095     5399     5424 1
    3096     6733     6810 1
    3097     5680     6658 1
    3098     3902     4212 1
    3099     5885     7074 1
    3100      831     1613 1
    3101     4203     4226 1
    3102     9787    10334 1
    3103     5653     7116 1
    3104     5568     5687 1
    3105      708     1530 1
    3106     6111     6757 1
    3107      429      253 1
    3108     4680     5216 1
    3109     5719     6427 1
    3110     4584     5145 1
    3111      822      233 1
    3112     9470    10349 1
    3113     2943     3487 1
    3114     7307     8486 1
    3115      761     1740 1
    3116     2507     3410 1
    3117        3     1375 1
    3118     9347    10460 1
    3119      680     1229 1
    3120     7631     8145 1
    3121     1381      245 1
    3122     3258     3309 1
    3123     7840     8381 1
    3124     2879     1998 1
    3125     6314     7069 1
    3126     7213     7998 1
    3127     7534     7601 1
    3128     7976     8243 1
    3129     9664     9719 1
    3130     1124     1738 1
    3131     7459     8585 1
    3132     6019     6429 1
    3133     6320     6868 1
    3134      402       60 1
    3135     6313     6433 1
    3136     7219     7536 1
    3137     7429     8634 1
    3138     3813     4956 1
    3139     4691     5306 1
    3140     7467     7708 1
    3141      599     1287 1
    3142     5376     5466 1
    3143     4535     5040 1
    3144     9056    10123 1
    3145    10043    10270 1
    3146     6498     6600 1
    3147     4873     4956 1
    3148       44     1060 1
    3149     6986     7136 1
    3150     7796     8195 1
    3151     9180     9522 1
    3152     4559     4580 1
    3153     4109     5339 1
    3154     7845     9954 1
    3155     8961     9808 1
    3156     7577     8073 1
    3157     4663     4903 1
    3158     9732    10170 1
    3159     9941    10377 1
    3160     1697     1772 1
    3161     9360     9816 1
    3162     8017     8102 1
    3163     4077     4917 1
    3164     6662     7141 1
    3165      578      643 1
    3166     8064     8418 1
    3167     2810     3059 1
    3168     2817     3155 1
    3169     5376     5861 1
    3170     2675     3084 1
    3171     3092     2474 1
    3172     7480     7656 1
    3173     5459     6131 1
    3174       21      401 1
    3175     5551     6964 1
    3176     6840     8386 1
    3177     9926    10675 1
    3178     7259     8451 1
    3179     3277     1997 1
    3180     9461     9485 1
    3181     9285    10627 1
    3182      929     1467 1
    3183     3703     4556 1
    3184     2061     2111 1
    3185      983       71 1
    3186     7502     7675 1
    3187     5566     6335 1
    3188     1850     2175 1
    3189      840      410 1
    3190     2396     3452 1
    3191      734     1652 1
    3192     7476     8640 1
    3193     3662     4070 1
    3194     9339     9833 1
    3195     6218     6522 1
    3196      920      807 1
    3197     5786     6295 1
    3198     9507    10166 1
    3199     3830     4683 1
    3200     6465     7001 1
    3201     9616    10455 1
    3202     1156      189 1
    3203     4121     4803 1
    3204     2607     3444 1
    3205     3874     4096 1
    3206      618     1708 1
    3207     2337     1893 1
    3208     5711     5986 1
    3209     4117     4409 1
    3210     8100     8475 1
    3211      983     1060 1
    3212     3212     2195 1
    3213     9774    10616 1
    3214     3887     4403 1
    3215     7823     8294 1
    3216     3770     4571 1
    3217     8511     8519 1
    3218     1015     1400 1
    3219     9763    10318 1
    3220     7911     7951 1
    3221     2734     1805 1
    3222     2941     3262 1
    3223     9704    10678 1
    3224     4674     4762 1
    3225     3695     3995 1
    3226     7350     7919 1
    3227     3583     4405 1
    3228     4179     4555 1
    3229      651      495 1
    3230     7799     7918 1
    3231     7895     8288 1
    3232     4053     4858 1
    3233     5986     6741 1
    3234     5390     7013 1
    3235     7857     8615 1
    3236     2566     2869 1
    3237     1514     1546 1
    3238    10148    10637 1
    3239    10368    10474 1
    3240      605     1164 1
    3241     4421     5036 1
    3242     4561     5129 1
    3243      785      537 1
    3244     9757     9803 1
    3245     4423     4724 1
    3246     6615     8220 1
    3247     6578     6804 1
    3248      378     1695 1
    3249     4737     4738 1
    3250     9808    10280 1
    3251     9610    10425 1
    3252     1103     1444 1
    3253     9424    10000 1
    3254     1018      602 1
    3255      643     1410 1
    3256     2798      702 1
    3257     4958     5202 1
    3258     3987     4976 1
    3259     1772     1512 1
    3260     1663      116 1
    3261     7904     8477 1
    3262     7371     8198 1
    3263     2064     7749 1
    3264     9674    10051 1
    3265      721      828 1
    3266     5837     6705 1
    3267    10245    10522 1
    3268     2791     1891 1
    3269     2940     3316 1
    3270     8823     7728 1
    3271     2316     2142 1
    3272     1250      129 1
    3273     5653     6951 1
    3274    10153    10707 1
    3275      716      500 1
    3276     9872    10399 1
    3277     8342     8676 1
    3278     2884     3386 1
    3279     8837     8886 1
    3280     2713     2215 1
    3281     3137      290 1
    3282      909     1261 1
    3283     3766     3942 1
    3284     7784     7885 1
    3285     7187     8665 1
    3286     9536    10036 1
    3287     8935     9677 1
    3288     5617     6174 1
    3289     9122     9724 1
    3290     4123     4556 1
    3291     2669     2881 1
    3292     3872     4573 1
    3293     1357     1499 1
    3294     1176     1247 1
    3295     3871     5264 1
    3296     7615     8092 1
    3297      689     1347 1
    3298     3796     4704 1
    3299     3594     4431 1
    3300     7242     8282 1
    3301     6553     6663 1
    3302     3067     1831 1
    3303     6419     6646 1
    3304     2856     3367 1
    3305     4328     5308 1
    3306      731      573 1
    3307     8932    10191 1
    3308     2635     2738 1
    3309    10440    10490 1
    3310     9827    10344 1
    3311     7951     8459 1
    3312       47     1751 1
    3313     7962     8320 1
    3314     9445     9775 1
    3315     5682     7114 1
    3316     5507     6396 1
    3317     3216     2066 1
    3318     1257      140 1
    3319     5460     6681 1
    3320     3201     3467 1
    3321      480      123 1
    3322     8165     8533 1
    3323    10178    10722 1
    3324     2837     1940 1
    3325     6215    10124 1
    3326     3054     2273 1
    3327     9999    10353 1
    3328     9359     9860 1
    3329      455      516 1
    3330     6709     6972 1
    3331     5614     6935 1
    3332     8770     7265 1
    3333     2507     3256 1
    3334     8381     8698 1
    3335     7664     8007 1
    3336     7266     8280 1
    3337     8895     7200 1
    3338     1012     4765 1
    3339     7896     7993 1
    3340     3772     4901 1
    3341     2782     2029 1
    3342     2620     2996 1
    3343     8968     9770 1
    3344     2481     1894 1
    3345      679     1229 1
    3346     7333     8183 1
    3347     2859     3504 1
    3348     6612     7126 1
    3349    10106    10162 1
    3350      684     1321 1
    3351     6104     6896 1
    3352     7251     8152 1
    3353     5922     6014 1
    3354      330      426 1
    3355     2599     2288 1
    3356     5529     6317 1
    3357     3254     2261 1
    3358     9338     9734 1
    3359     8798     8414 1
    3360     2686     2917 1
    3361     3883     4194 1
    3362     3839     4517 1
    3363     9925    10003 1
    3364     2636     1846 1
    3365     9173     9542 1
    3366     4869     5113 1
    3367     5076     5299 1
    3368     7879     8338 1
    3369     2891     2981 1
    3370     1192      299 1
    3371     3958     5177 1
    3372     9158     9853 1
    3373     9681    10686 1
    3374     5950     6064 1
    3375     2411     2193 1
    3376     6418     6620 1
    3377     6572     6670 1
    3378     8356     8546 1
    3379     8843     7453 1
    3380     5550     6707 1
    3381     3660     4700 1
    3382     1039      142 1
    3383      780     1503 1
    3384     4612     4877 1
    3385     7360     8505 1
    3386      441     1282 1
    3387     2977     2027 1
    3388     6469     6559 1
    3389     1001     1465 1
    3390     5589     5644 1
    3391     2482     3250 1
    3392     9369    10486 1
    3393     8731     8107 1
    3394     5625     5636 1
    3395     2807     3276 1
    3396     9064     9122 1
    3397     1227     1598 1
    3398     5847     6361 1
    3399     8746     8376 1
    3400     9062     9129 1
    3401     4125     4216 1
    3402     8664     8696 1
    3403     7850     7962 1
    3404     3631     4492 1
    3405     2565     2380 1
    3406     6118     7023 1
    3407     5820     6633 1
    3408     4197     5016 1
    3409     6315     6473 1
    3410     9191     9264 1
    3411       80      185 1
    3412     9416    10190 1
    3413    10084    10369 1
    3414     7864     8377 1
    3415     5393     5591 1
    3416     7719     8067 1
    3417     1886     2248 1
    3418     9876    10012 1
    3419    10014    10524 1
    3420     2668     2326 1
    3421     5634     6028 1
    3422      796     1339 1
    3423     1146     1477 1
    3424     2745     2994 1
    3425     5581     5906 1
    3426     4061     4674 1
    3427     3137     2091 1
    3428     4056     5326 1
    3429     2591     3096 1
    3430     9493     9967 1
    3431     4120     9913 1
    3432     5986     6266 1
    3433     6270     7063 1
    3434     6294     6512 1
    3435     9560    10417 1
    3436     8828     7714 1
    3437      625     1262 1
    3438     4934     4937 1
    3439     2427     3195 1
    3440     1119     1246 1
    3441     6122     6330 1
    3442     2612     2370 1
    3443     3632     4418 1
    3444     8795     7835 1
    3445     2035     2108 1
    3446     9099    10233 1
    3447    10082    10356 1
    3448     7814     8119 1
    3449      930     1357 1
    3450      863      465 1
    3451      764     1779 1
    3452     7587     8004 1
    3453     9330    10136 1
    3454     4706     4982 1
    3455     2641     3251 1
    3456     6875     7133 1
    3457     9963    10645 1
    3458     2356     1897 1
    3459     5539     7128 1
    3460        8      289 1
    3461     1813     3460 1
    3462    10019    10278 1
    3463     1480     1543 1
    3464     5615     6207 1
    3465     9536    10354 1
    3466     6808     7050 1
    3467     5870     6008 1
    3468    10054    10587 1
    3469     8825     7978 1
    3470     2522     3529 1
    3471     3217     3323 1
    3472      722      408 1
    3473     5703     6872 1
    3474     4573     5258 1
    3475     5612     7038 1
    3476     9010     9946 1
    3477     5613     6760 1
    3478     8722     7285 1
    3479     8939     9224 1
    3480     1082     1561 1
    3481      664       63 1
    3482     6363     6797 1
    3483     7979     8187 1
    3484     2871     4271 1
    3485      348     2188 1
    3486      724     1063 1
    3487     2421     1821 1
    3488    10272    10474 1
    3489     4312     4962 1
    3490     4081     5295 1
    3491     1995     2290 1
    3492     6329     6995 1
    3493     6210     7108 1
    3494     4255     4916 1
    3495     4408     5120 1
    3496     9227    10015 1
    3497     4340     4901 1
    3498     3754     5319 1
    3499     7909     7923 1
    3500     2498     2138 1
    3501     2161     3528 1
    3502     9488     9504 1
    3503     5400     7111 1
    3504      466     1741 1
    3505      579     1133 1
    3506     3682     5106 1
    3507     1300     1747 1
    3508      285     1702 1
    3509     6591     7075 1
    3510      998     1355 1
    3511     4306     5058 1
    3512     6605     6729 1
    3513     7262     7846 1
    3514     2604      739 1
    3515      687     1301 1
    3516     9286    10613 1
    3517     5626     6478 1
    3518      909     1111 1
    3519      963     1630 1
    3520      860      514 1
    3521     5463     6368 1
    3522     2627     2208 1
    3523     4138     4149 1
    3524     9042    10139 1
    3525     9498    10177 1
    3526     9227     9942 1
    3527     2672     3187 1
    3528     7992     8540 1
    3529     3775     4799 1
    3530     6861     6911 1
    3531     9405    10679 1
    3532     9049     9148 1
    3533     1122      165 1
    3534      446      635 1
    3535      869      152 1
    3536      833     1420 1
    3537    10337    10365 1
    3538     5525     6705 1
    3539     4016     4749 1
    3540     2902     3039 1
    3541     9560     9786 1
    3542     1145      186 1
    3543     3042     2339 1
    3544     1902     1984 1
    3545     9576    10405 1
    3546     8135     8559 1
    3547     9624    10021 1
    3548     5365     6605 1
    3549     5193     9822 1
    3550     4514     4531 1
    3551     7177     7206 1
    3552       16      693 1
    3553     4049     4402 1
    3554     2608     2720 1
    3555     8914     8311 1
    3556     5396     6081 1
    3557     6068     6916 1
    3558      271      251 1
    3559     5562     6899 1
    3560     3627     4687 1
    3561     7733     8091 1
    3562     4069     4399 1
    3563     1280     1640 1
    3564     7340     8553 1
    3565      637     1164 1
    3566     4157     4293 1
    3567     1203      307 1
    3568    10184    10322 1
    3569       11      176 1
    3570     2728     3011 1
    3571     8839     7959 1
    3572     3708     4207 1
    3573     4709     4736 1
    3574     9583     9684 1
    3575     9351     9869 1
    3576     4347     5073 1
    3577     4289     4967 1
    3578     3757     4487 1
    3579     8858     8908 1
    3580      916     1062 1
    3581     6655     7139 1
    3582     8902     8913 1
    3583     1167      328 1
    3584     1201      111 1
    3585     9359    10276 1
    3586     5770     6204 1
    3587     3103     2235 1
    3588     5441     5752 1
    3589     6150     6230 1
    3590     3571     4927 1
    3591     7204     7236 1
    3592     7876     8461 1
    3593     9814    10432 1
    3594     8726     8164 1
    3595     3584     5189 1
    3596     8787     7467 1
    3597     8859     7964 1
    3598     6293     6819 1
    3599     2895     3147 1
    3600     2628     2192 1
    3601     3857     4279 1
    3602     9319    10351 1
    3603     3104     3346 1
    3604     9832    10068 1
    3605     9373     9563 1
    3606     4168     5059 1
    3607     4262     4781 1
    3608     2775     3196 1
    3609     9154    10037 1
    3610     8948     8999 1
    3611     5394     6001 1
    3612     5553     6768 1
    3613     4619     4869 1
    3614     3650     4939 1
    3615     6225     6899 1
    3616     6607     6744 1
    3617      832     1210 1
    3618     7580     8426 1
    3619     4327     5005 1
    3620     5643     6896 1
    3621     7366     8578 1
    3622     3817     5245 1
    3623     6069     6725 1
    3624     9981    10169 1
    3625     9236    10256 1
    3626     2753     3524 1
    3627      856     1118 1
    3628      759     1705 1
    3629     3677     4993 1
    3630      905      823 1
    3631     5427     7042 1
    3632     5698     7088 1
    3633     7715     7875 1
    3634     9292     9433 1
    3635     9888    10299 1
    3636     4449     4664 1
    3637     2093     3477 1
    3638     7210     7332 1
    3639     8347     9954 1
    3640     8996    10115 1
    3641     2596     2184 1
    3642     8734     7773 1
    3643     9768    10501 1
    3644     4810     4948 1
    3645     3664     4423 1
    3646     8826     7497 1
    3647     4963     4991 1
    3648     3105     1895 1
    3649     9942    10303 1
    3650     3063     3366 1
    3651     5616     7043 1
    3652     2558     2439 1
    3653     4903     5347 1
    3654     7448     7879 1
    3655     4133     4448 1
    3656     9334    10549 1
    3657     7458     7519 1
    3658     2579     8232 1
    3659     7444     8513 1
    3660     5827     6680 1
    3661      902      624 1
    3662     7485     7750 1
    3663     7278     7977 1
    3664     1161      102 1
    3665     9154     9468 1
    3666    10232    10719 1
    3667     5822     6760 1
    3668     8915     8397 1
    3669     7235     7457 1
    3670      394     1501 1
    3671     2902     3028 1
    3672     4217     5278 1
    3673     4739     5146 1
    3674     9500     9931 1
    3675     3684     4051 1
    3676     9266     9454 1
    3677     3876     3936 1
    3678     7395     7601 1
    3679     1170     1595 1
    3680     4683     4752 1
    3681     3639     4070 1
    3682     3602     4563 1
    3683     8876     8518 1
    3684     2079     3353 1
    3685     2271     2298 1
    3686     4117     5161 1
    3687     4725     5181 1
    3688     6350     6466 1
    3689     9698    10688 1
    3690     6449     7848 1
    3691     5450     7084 1
    3692      663     5175 1
    3693     9697    10588 1
    3694     3599     4685 1
    3695     3304     1877 1
    3696     5412     5762 1
    3697     3391     5326 1
    3698     7484     7790 1
    3699     1403     1753 1
    3700     9209     9442 1
    3701     1136     1201 1
    3702     1040     1756 1
    3703     1579      126 1
    3704     7852     7958 1
    3705     6341     6880 1
    3706     9092    10191 1
    3707     3677     4893 1
    3708     5876     6334 1
    3709     6258     6466 1
    3710     1012     4986 1
    3711     7316     8101 1
    3712     8816     7354 1
    3713     2795     2113 1
    3714     3591     5187 1
    3715     4102     4804 1
    3716     5284     5301 1
    3717     6188     6922 1
    3718     6983     7005 1
    3719     1337      257 1
    3720     4675     5335 1
    3721     3083     2212 1
    3722    10463    10630 1
    3723     4516     5160 1
    3724     3923     5174 1
    3725     6222     6674 1
    3726     4413     4580 1
    3727     4707     5051 1
    3728     1272     1535 1
    3729     2106     3534 1
    3730     9477     9727 1
    3731     8248     8478 1
    3732     8795     8260 1
    3733     5698     6490 1
    3734     1486      149 1
    3735     3113     3134 1
    3736     4544     5087 1
    3737      737      151 1
    3738     3846     5103 1
    3739     3214     1808 1
    3740     1097     1690 1
    3741     3043     3280 1
    3742     9504    10666 1
    3743     2917     1987 1
    3744     5561     6265 1
    3745     1079     1639 1
    3746     2803     3170 1
    3747     3997     4844 1
    3748     2676     2403 1
    3749     4590     5062 1
    3750     4001     4719 1
    3751     5359     6420 1
    3752     5936     6903 1
    3753     8749     8520 1
    3754     8589     8615 1
    3755     7543     7974 1
    3756     2972     3034 1
    3757     4298     5328 1
    3758     3587     4732 1
    3759     1558      247 1
    3760     7262     7690 1
    3761     9462     9797 1
    3762     4061     5092 1
    3763     8772     8023 1
    3764     5655     6454 1
    3765     2876     2435 1
    3766     8888     7609 1
    3767     2614     7648 1
    3768     4325     5022 1
    3769     7469     7983 1
    3770     4055     5218 1
    3771     2560     2785 1
    3772     6783     6928 1
    3773     4387     4944 1
    3774     7433     8335 1
    3775     6679     7043 1
    3776     6379     7087 1
    3777     9555    10348 1
    3778     2077     3372 1
    3779     2653     3125 1
    3780     3256     2069 1
    3781     3847     5055 1
    3782     7396     7468 1
    3783     3164     2098 1
    3784     8147     8554 1
    3785     7527     8149 1
    3786     7427     8537 1
    3787      433     1532 1
    3788     7367     8266 1
    3789     9753    10137 1
    3790     7543     7993 1
    3791     2966     2104 1
    3792      564     1190 1
    3793     7358     8643 1
    3794     8825     8539 1
    3795     6035     6296 1
    3796     9083    10322 1
    3797     5606     6043 1
    3798      848     1098 1
    3799     5726     6605 1
    3800     2496     2686 1
    3801     9033     9842 1
    3802      795     1201 1
    3803     5467     7072 1
    3804     9766    10493 1
    3805     6380     6939 1
    3806     2402     2039 1
    3807     1090     1291 1
    3808     9519    10043 1
    3809     5353     5575 1
    3810     8750     7338 1
    3811     2795     2180 1
    3812     9384     9531 1
    3813     8819     7756 1
    3814     3856     5273 1
    3815     5913     6387 1
    3816     7760     7954 1
    3817     9541    10228 1
    3818     7098    10437 1
    3819     2655     2311 1
    3820     1197      108 1
    3821     1023      278 1
    3822     5448     5734 1
    3823     3831     4437 1
    3824     8944     9641 1
    3825      650      370 1
    3826     7695     7862 1
    3827     7784     8303 1
    3828     4553     4671 1
    3829     4692     4803 1
    3830     9856    10570 1
    3831     7208     8404 1
    3832     4687     4813 1
    3833     2233     2282 1
    3834     2739     3077 1
    3835     6499     6507 1
    3836      807       54 1
    3837     2554     2307 1
    3838     6063     6896 1
    3839     5611     6701 1
    3840      500     1769 1
    3841     4080     4830 1
    3842     9081    10345 1
    3843     9614    10316 1
    3844     3121     2204 1
    3845    10012    10722 1
    3846     3134     2295 1
    3847     9710    10178 1
    3848     8830     8465 1
    3849     4319     4483 1
    3850     5847     6392 1
    3851     2724     2215 1
    3852     9701    10394 1
    3853     4204     4416 1
    3854     7459     7523 1
    3855     3723     5174 1
    3856     4142     4668 1
    3857     3102     2336 1
    3858      276     1665 1
    3859     2732     2254 1
    3860     8067     8586 1
    3861     2893     3311 1
    3862     9544    10532 1
    3863     3579     4435 1
    3864     4474     5269 1
    3865     7276     7577 1
    3866     2603     3247 1
    3867     3857     4759 1
    3868     9394     9454 1
    3869    10470    10597 1
    3870     1405      199 1
    3871     5642     6926 1
    3872     9459    10259 1
    3873     4034     4512 1
    3874     9884     9987 1
    3875     1979     3415 1
    3876     4665     5258 1
    3877       83      229 1
    3878     5830     6540 1
    3879      522      592 1
    3880     8822     7490 1
    3881      620     1780 1
    3882       21      126 1
    3883     1379     1700 1
    3884     4732     5213 1
    3885     2638     2959 1
    3886     2748     2236 1
    3887     2634     3266 1
    3888     9157     9746 1
    3889     2555     2089 1
    3890     1495      101 1
    3891     9962     9997 1
    3892     8929     7908 1
    3893     2840     3042 1
    3894     2519     2088 1
    3895     2221     3510 1
    3896      590      340 1
    3897     2457     4770 1
    3898     9831    10668 1
    3899     8291     8318 1
    3900     4125     4397 1
    3901     3845     5000 1
    3902     2961     2359 1
    3903     7199     8070 1
    3904     9103     9219 1
    3905      464     1778 1
    3906     6238     6730 1
    3907      623     1399 1
    3908     8186     8587 1
    3909     5758     6373 1
    3910     6480     6617 1
    3911      976     1401 1
    3912     5579     6568 1
    3913     1811     1944 1
    3914     9776     9798 1
    3915     8302     8398 1
    3916     5983     6252 1
    3917     4385     4949 1
    3918     7631     8176 1
    3919     5416     6029 1
    3920     7165     7254 1
    3921     9967    10647 1
    3922     1020     1518 1
    3923     3877     3914 1
    3924     3957     3974 1
    3925     7277     7800 1
    3926     5977     6769 1
    3927     2737     2059 1
    3928     1786     2218 1
    3929     2884     2198 1
    3930     5648     6553 1
    3931     5535     6257 1
    3932      767     1383 1
    3933     3883     4228 1
    3934      365      224 1
    3935     2813     3070 1
    3936      364     1605 1
    3937     8162     8548 1
    3938     4051     4597 1
    3939      833      182 1
    3940     9997    10608 1
    3941     8760     8307 1
    3942     3832     4771 1
    3943     3260     2167 1
    3944     7298     8399 1
    3945     3625     4751 1
    3946     1623     1688 1
    3947     8809     7259 1
    3948     5482     5548 1
    3949     4106     4803 1
    3950     5753     6257 1
    3951     6844     6944 1
    3952      794     6447 1
    3953    10106    10164 1
    3954     3711     4136 1
    3955     1890     2088 1
    3956     3676     4137 1
    3957     7901     8114 1
    3958     8974     9938 1
    3959     5043     5095 1
    3960     5802     6220 1
    3961     8319     8320 1
    3962     6964     7005 1
    3963      718     1259 1
    3964     6795     6902 1
    3965     7482     8707 1
    3966     5390     7018 1
    3967      737     1092 1
    3968     6130     6645 1
    3969     5577     5946 1
    3970     7540     7557 1
    3971     5357     6414 1
    3972     2617     1918 1
    3973     6305     6407 1
    3974     7096     7988 1
    3975     9282     9449 1
    3976     9580    10712 1
    3977      741      641 1
    3978     6857     7046 1
    3979     9715    10274 1
    3980     8914     7797 1
    3981     5721     6967 1
    3982      846     1481 1
    3983     4400     4778 1
    3984     5436     6763 1
    3985     5531     6706 1
    3986      266      353 1
    3987     6753     6994 1
    3988     8080     8133 1
    3989    10451    10526 1
    3990     5675     5712 1
    3991     2934     1919 1
    3992      862      708 1
    3993     9281     9548 1
    3994     2496     2078 1
    3995     2662     1923 1
    3996     5942     6172 1
    3997     1074     1723 1
    3998     4302     4756 1
    3999     2580     2987 1
    4000    10097    10474 1
    4001     7583     7604 1
    4002     2609     3266 1
    4003     3992     5080 1
    4004     8925     7472 1
    4005     2083     3500 1
    4006      663     4446 1
    4007     9325    10302 1
    4008     3694     8522 1
    4009     3917     4811 1
    4010     5881     6223 1
    4011     2343     3397 1
    4012     1897     3445 1
    4013      850       70 1
    4014     9030     9471 1
    4015     2440     3318 1
    4016     7493     7771 1
    4017     7191     7334 1
    4018     7330     8305 1
    4019     2381     3194 1
    4020     1453      299 1
    4021     3680     4062 1
    4022     6767     6888 1
    4023     1838     3529 1
    4024     7162     7904 1
    4025     3144     1791 1
    4026     8720     8844 1
    4027     1138      386 1
    4028     4497     5037 1
    4029     4739     5274 1
    4030     9070     9371 1
    4031     1035     1111 1
    4032      936      432 1
    4033      992     1604 1
    4034     9778    10155 1
    4035     7600     8028 1
    4036     5782     6237 1
    4037       40      237 1
    4038     8892     7492 1
    4039     2552     3023 1
    4040     3612     4444 1
    4041     4023     4836 1
    4042     8735     8902 1
    4043     5915     6639 1
    4044     6343     6678 1
    4045     5039     5314 1
    4046     6562     8160 1
    4047     7173     7633 1
    4048     1049      758 1
    4049      868     1012 1
    4050     6631     6848 1
    4051     4954     5331 1
    4052    10077    10177 1
    4053     9030    10095 1
    4054     3652     3667 1
    4055     8926     8484 1
    4056     8254     8344 1
    4057     4264     4455 1
    4058     2863     1866 1
    4059      803      222 1
    4060     6001     7131 1
    4061     1014      199 1
    4062     4153     4338 1
    4063     1025      553 1
    4064     2661     3549 1
    4065     2657     1932 1
    4066     2972     3002 1
    4067     3189     3309 1
    4068     7268     8501 1
    4069     9548     9780 1
    4070     9943    10407 1
    4071     6485     7115 1
    4072     2648     3215 1
    4073     5558     7905 1
    4074     9078    10662 1
    4075     2877     2241 1
    4076     3274     3347 1
    4077     2838     1990 1
    4078     3834     5234 1
    4079     3663     3774 1
    4080     7667     8182 1
    4081     9361     9369 1
    4082      654      120 1
    4083     1686      108 1
    4084     7411     8263 1
    4085     6243     6591 1
    4086     4516     4935 1
    4087     4872     5150 1
    4088       67      191 1
    4089     9212     9755 1
    4090     9874    10231 1
    4091     8741     8409 1
    4092      650      755 1
    4093     4735     5139 1
    4094     4124     4473 1
    4095     3043     1920 1
    4096     2044     2300 1
    4097     9496    10673 1
    4098    10411    10684 1
    4099     1042     1451 1
    4100     2454     3486 1
    4101      977     1194 1
    4102      172      212 1
    4103     8988     9216 1
    4104     7697     8553 1
    4105     1214      252 1
    4106     8758     8778 1
    4107     3851     5248 1
    4108     9010     9867 1
    4109     9657    10275 1
    4110     6195     6974 1
    4111     3986     4654 1
    4112     7439     8349 1
    4113     8157     8328 1
    4114     5796     6420 1
    4115     3100     3353 1
    4116     4399     5182 1
    4117     9736     9944 1
    4118     2622     2268 1
    4119     5823     6841 1
    4120      806      537 1
    4121     2951     3426 1
    4122     3312     1818 1
    4123     8750     8791 1
    4124      840     4635 1
    4125     9195    10513 1
    4126     4670     5208 1
    4127     7351     7396 1
    4128     4017     4647 1
    4129     7567     8021 1
    4130     3946     4395 1
    4131     9176    10594 1
    4132     7308     9367 1
    4133      610     1692 1
    4134     7276     8471 1
    4135     9036    10104 1
    4136     3116     3397 1
    4137     2171     3370 1
    4138     6038     6738 1
    4139     5451     5773 1
    4140     5887     6783 1
    4141     4810     5225 1
    4142      716     1108 1
    4143     2610     1965 1
    4144     2484     3553 1
    4145     5476     6899 1
    4146     7714     8112 1
    4147    10019    10688 1
    4148     2806     2378 1
    4149     9302     9339 1
    4150     4701     5280 1
    4151     8480     8682 1
    4152      932     1014 1
    4153     9461    10485 1
    4154     7678     7930 1
    4155     4206     4721 1
    4156     1580      250 1
    4157     9932     9943 1
    4158     3951     4241 1
    4159      778      258 1
    4160     1123     1489 1
    4161     5489     6030 1
    4162     9879    10351 1
    4163    10206    10590 1
    4164     8920     7736 1
    4165     8995    10535 1
    4166     7795     8239 1
    4167     6279     7064 1
    4168     2572     2257 1
    4169     9659    10632 1
    4170     9068     9187 1
    4171      556     1405 1
    4172     6235     6852 1
    4173      531      268 1
    4174     8877     7195 1
    4175     8953     9338 1
    4176     6432     7142 1
    4177     5916     6768 1
    4178     7565     7595 1
    4179      688     1476 1
    4180     7579     7765 1
    4181     1765     1915 1
    4182     3858     5138 1
    4183     8193     8447 1
    4184     9456    10049 1
    4185     4383     5032 1
    4186     9438    10710 1
    4187      672     1374 1
    4188     5648     6550 1
    4189     5957     6775 1
    4190     9322    10081 1
    4191     9779    10128 1
    4192      555     1275 1
    4193     2546     3018 1
    4194     5979     6935 1
    4195     4019     4448 1
    4196     3609     3612 1
    4197     9679     9747 1
    4198     9465    10652 1
    4199     9628    10243 1
    4200      629      325 1
    4201     2665     3427 1
    4202     6209     6826 1
    4203     8064     8210 1
    4204     1421     1756 1
    4205     6628     6960 1
    4206     9295     9467 1
    4207     4447     4794 1
    4208       28     1430 1
    4209     5924     6482 1
    4210     3754     4375 1
    4211     4613     4878 1
    4212     9965    10434 1
    4213     5414     5447 1
    4214     9085     9680 1
    4215     9483     9816 1
    4216     3932     4827 1
    4217     6567     9614 1
    4218     4096     4778 1
    4219     7387     7796 1
    4220      495     3952 1
    4221     2701     3411 1
    4222     8799     8674 1
    4223     4527     5150 1
    4224     8013     8488 1
    4225     3823     4419 1
    4226     5715     6608 1
    4227     1415      132 1
    4228     3279     5306 1
    4229     7366     8592 1
    4230     2512     2658 1
    4231     9550    10495 1
    4232     5414     6671 1
    4233     4614     5346 1
    4234     2995     2163 1
    4235      824     1560 1
    4236     8994     9113 1
    4237     4254     9076 1
    4238     1904     2261 1
    4239     8363     8427 1
    4240     9182     9532 1
    4241    10265    10411 1
    4242     6285     6335 1
    4243     4003     4849 1
    4244     5499     6064 1
    4245     4552     4870 1
    4246     4161     4584 1
    4247     1316      173 1
    4248     3660     3861 1
    4249     4600     4938 1
    4250     5357     6920 1
    4251     6252     7090 1
    4252     3199     3217 1
    4253     9115     9718 1
    4254     2690     3308 1
    4255     2950     2420 1
    4256     3708     5293 1
    4257     1321      284 1
    4258     5525     6759 1
    4259     9163    10107 1
    4260    10058    10451 1
    4261     6667     6944 1
    4262     2920     3493 1
    4263     3983     4903 1
    4264     6445     7016 1
    4265      944      988 1
    4266     2847     1943 1
    4267     8094     8111 1
    4268     3801     5061 1
    4269     1970     3356 1
    4270     6350     7009 1
    4271     7622     8618 1
    4272     4211     4930 1
    4273     7674     8360 1
    4274     2009     3496 1
    4275     7529     7662 1
    4276     1373      241 1
    4277     2749     3540 1
    4278     4324     4837 1
    4279     9892    10013 1
    4280     7363     7582 1
    4281      483      409 1
    4282     3929     4217 1
    4283     9989    10716 1
    4284     5811     5955 1
    4285     9428     9456 1
    4286     4131     4143 1
    4287    10454    10588 1
    4288     1661      127 1
    4289     4938     5297 1
    4290     5755     6371 1
    4291      568     1377 1
    4292     4531     5199 1
    4293     6332     6509 1
    4294     7234     7249 1
    4295     5666     6402 1
    4296     3146     2269 1
    4297     6687     6831 1
    4298     2569     2992 1
    4299     7849     8511 1
    4300     4796     5265 1
    4301     6088     6142 1
    4302     5378     5384 1
    4303     7170     7215 1
    4304      759      117 1
    4305     6376    10140 1
    4306      620      260 1
    4307     9794    10519 1
    4308     7816     9632 1
    4309     9230    10637 1
    4310     5487     6145 1
    4311     1389      287 1
    4312     3697     4397 1
    4313    10364    10683 1
    4314     5425     6497 1
    4315     5480     7106 1
    4316     9812     9933 1
    4317     3575     4018 1
    4318     5653     6792 1
    4319     2518     3434 1
    4320     9483    10177 1
    4321     8980    10565 1
    4322     4814    10638 1
    4323     6432     6630 1
    4324     4286     4561 1
    4325     2646     3098 1
    4326      982     1101 1
    4327     2570     2319 1
    4328     2854     3052 1
    4329     7816     8522 1
    4330     5890     6770 1
    4331     8987    10358 1
    4332     3676     5232 1
    4333     3025     2073 1
    4334     2721     2854 1
    4335      701     1132 1
    4336    10215    10235 1
    4337     3161     1817 1
    4338      969      668 1
    4339     3087     3394 1
    4340     1040      625 1
    4341     2902     2420 1
    4342     9327     9397 1
    4343     9939    10494 1
    4344     4097     5118 1
    4345    10065    10432 1
    4346     4681     5083 1
    4347     6906     7080 1
    4348     8789     8239 1
    4349     8032     8539 1
    4350      897     1613 1
    4351     6405     6813 1
    4352     4702     4710 1
    4353     7767     8525 1
    4354     4428     4999 1
    4355      765     1281 1
    4356      688     5496 1
    4357     7640     8520 1
    4358     6127     6596 1
    4359     2417     3248 1
    4360     8978     9002 1
    4361     3975     5158 1
    4362     6360     6994 1
    4363     3064     2065 1
    4364     5614     5982 1
    4365     3864     4771 1
    4366     7713     8029 1
    4367     9583    10442 1
    4368     2584     2149 1
    4369      929      249 1
    4370     9161    10373 1
    4371     2781     2827 1
    4372     3121     2395 1
    4373     1021     1496 1
    4374     4318     4706 1
    4375     6204    10010 1
    4376     2635     3309 1
    4377      766     1550 1
    4378     9368    10237 1
    4379     6000     6480 1
    4380      584      223 1
    4381      669     1704 1
    4382     4774     9636 1
    4383     1918     2115 1
    4384     6236     6870 1
    4385     5437     6272 1
    4386     9246    10683 1
    4387     7762     7991 1
    4388     2956     2957 1
    4389     4221     4634 1
    4390      375       95 1
    4391     8750     7900 1
    4392     7169     8314 1
    4393     8150     8542 1
    4394     8168     8256 1
    4395      631      202 1
    4396     6451     6979 1
    4397     3152     2221 1
    4398     1071     1583 1
    4399     9787     9849 1
    4400     4182     4667 1
    4401     7778     8085 1
    4402     9910    10412 1
    4403     4235     5053 1
    4404     3051     2235 1
    4405      396      413 1
    4406     2581     3446 1
    4407     5365     6065 1
    4408      689     1627 1
    4409     2506     3184 1
    4410     5654     6815 1
    4411     6346     6464 1
    4412     7244     7650 1
    4413     2863     2465 1
    4414      352     1745 1
    4415     9251    10248 1
    4416     6872     6948 1
    4417     1372     1601 1
    4418     3171     3551 1
    4419     7550     7891 1
    4420     5914     6205 1
    4421     1369     1448 1
    4422     9045    10126 1
    4423     4162     4347 1
    4424     7680     8386 1
    4425     5705     7050 1
    4426     3740     4790 1
    4427    10239    10314 1
    4428     5668     6890 1
    4429      806      272 1
    4430     9151    10334 1
    4431     7337     8414 1
    4432     1076     1336 1
    4433     7735     7870 1
    4434     3727     5286 1
    4435     3037     3390 1
    4436     9409    10673 1
    4437     9550    10295 1
    4438       15     5508 1
    4439     4085     5113 1
    4440      957       55 1
    4441     3366     3427 1
    4442      687      783 1
    4443     6173     7122 1
    4444     2468     2111 1
    4445     9255     9316 1
    4446     4251     4596 1
    4447     3614     4375 1
    4448     4086     4422 1
    4449     4241     5083 1
    4450     9641    10354 1
    4451     4524     5075 1
    4452     6098     6674 1
    4453     8918     7768 1
    4454     3701     4607 1
    4455     3867     4441 1
    4456     9501     9848 1
    4457     3735     4127 1
    4458     7747     8390 1
    4459     7668     8473 1
    4460     3685     5314 1
    4461      887     1297 1
    4462      962      786 1
    4463     7385     8367 1
    4464     7438     7907 1
    4465     7308     7418 1
    4466      896      462 1
    4467     1304      417 1
    4468     5793     5984 1
    4469     3859     4883 1
    4470     3591     3722 1
    4471     7898     8000 1
    4472     5401     6520 1
    4473     2500     3475 1
    4474     8998    10061 1
    4475     6529     7006 1
    4476     9278     9860 1
    4477     4014     4157 1
    4478     1782     2000 1
    4479     5745     5879 1
    4480     7832     8496 1
    4481     3025     1995 1
    4482     3082     3459 1
    4483     9147     9914 1
    4484     9652    10295 1
    4485     3744     4195 1
    4486     9709    10491 1
    4487     2668     2239 1
    4488     7167     8094 1
    4489     1870     2150 1
    4490     8407     8619 1
    4491     6149     6571 1
    4492     4140     4742 1
    4493     8902     7466 1
    4494     8896     8090 1
    4495     6296     6377 1
    4496     7838     8414 1
    4497     7405     7625 1
    4498     1173     1322 1
    4499     6141     7057 1
    4500     9994    10242 1
    4501     6737     6916 1
    4502     9738    10604 1
    4503     1227     1714 1
    4504     2452     2241 1
    4505     3795     5171 1
    4506     3588     4998 1
    4507     9555     9930 1
    4508     2735     2950 1
    4509     4385     5312 1
    4510     6109     6791 1
    4511     7768     8411 1
    4512     6527     6586 1
    4513     5851     6817 1
    4514     6276     6529 1
    4515     3797     4166 1
    4516     1857     3502 1
    4517     8408     8485 1
    4518    10454    10593 1
    4519     7385     8529 1
    4520     9935    10349 1
    4521     2482     1794 1
    4522     7206     7807 1
    4523     5390     6740 1
    4524     2207     3391 1
    4525     9362    10549 1
    4526     4120     4463 1
    4527     3928     4768 1
    4528     5654     6564 1
    4529     6132     6170 1
    4530      458      255 1
    4531     5503     6005 1
    4532     3655     4344 1
    4533     6080     6812 1
    4534     2530     2939 1
    4535     4898     5184 1
    4536     2637     3394 1
    4537      860     1431 1
    4538     8766     7173 1
    4539     1795     3495 1
    4540      957     1417 1
    4541     4147     4373 1
    4542    10523    10585 1
    4543     9671    10066 1
    4544     2832     1958 1
    4545     5605     6998 1
    4546     9427     9972 1
    4547     7739     8426 1
    4548     8959    10108 1
    4549     3118     1842 1
    4550     5052     5247 1
    4551     7731     7915 1
    4552     8811     7843 1
    4553     9204    10022 1
    4554     7935     8378 1
    4555      419     1615 1
    4556     9067     9282 1
    4557     1386     1771 1
    4558     1189      292 1
    4559     7531     8011 1
    4560     3569     3847 1
    4561     3870     4111 1
    4562     1509     1585 1
    4563     2905     1847 1
    4564     2320     2246 1
    4565      812     1691 1
    4566      616     6252 1
    4567     9144    10606 1
    4568     1126     1311 1
    4569     1283     1347 1
    4570     4310     4512 1
    4571     3715     4937 1
    4572     1268      295 1
    4573     1345      155 1
    4574     6306     6330 1
    4575     4608     5324 1
    4576     9422     9704 1
    4577     9922    10256 1
    4578     6347     6682 1
    4579     9274    10720 1
    4580     8784     7391 1
    4581     5526     6680 1
    4582    10156    10385 1
    4583      564      581 1
    4584     8099     8258 1
    4585     5736     7115 1
    4586     1353     1616 1
    4587     9009     9435 1
    4588     4236     4500 1
    4589     7966     8665 1
    4590     1446     3501 1
    4591     5634     5729 1
    4592     6100     6676 1
    4593     3882     4861 1
    4594     9208    10146 1
    4595     4376     4670 1
    4596     3968     4540 1
    4597     7860     8535 1
    4598    10224    10289 1
    4599     9991    10256 1
    4600     6487     7098 1
    4601     9998    10197 1
    4602     3897     4639 1
    4603     4186     4456 1
    4604     7393     7574 1
    4605     2497     3251 1
    4606     6269     6538 1
    4607     2716     3470 1
    4608     8069     8119 1
    4609     2662     3413 1
    4610     7289     8528 1
    4611     5816     6244 1
    4612     7845     8704 1
    4613     6287     6875 1
    4614     9227    10187 1
    4615     1298     1372 1
    4616     1329      169 1
    4617     4494     5042 1
    4618     3710     4304 1
    4619      785     1231 1
    4620     5410     6758 1
    4621     5582     6528 1
    4622     4299     4656 1
    4623      719      554 1
    4624      860      682 1
    4625     2750     3349 1
    4626     3974     4995 1
    4627       20      231 1
    4628      819      130 1
    4629     3778     4475 1
    4630     9687    10133 1
    4631     1117     1253 1
    4632     2658     3127 1
    4633     3687     3753 1
    4634     2485     3338 1
    4635    10315    10495 1
    4636       23      990 1
    4637     2565     2812 1
    4638     6076     6717 1
    4639    10012    10207 1
    4640     6397     6474 1
    4641     7490     8251 1
    4642     3139     3398 1
    4643     3643     4968 1
    4644     4194     9607 1
    4645     5637     5687 1
    4646     1154     1532 1
    4647     6434     6946 1
    4648     7402     8547 1
    4649     3573     5346 1
    4650     4233     4750 1
    4651     2322     2349 1
    4652     4161     4844 1
    4653     2475     1867 1
    4654      557     6336 1
    4655     1414     1433 1
    4656      855      938 1
    4657     4578     5205 1
    4658     9317     9506 1
    4659     7391     7410 1
    4660     7727     8007 1
    4661     4437     4522 1
    4662     9989    10644 1
    4663     9649     9758 1
    4664     6307     6877 1
    4665     8920     8139 1
    4666     5404     6645 1
    4667     7560     8487 1
    4668     5750     6040 1
    4669     8783     7974 1
    4670     2979     3301 1
    4671     7397     8487 1
    4672     9020     9329 1
    4673     9018    10169 1
    4674      757      825 1
    4675     2596     2042 1
    4676      541      181 1
    4677     2647     2368 1
    4678     8831     8164 1
    4679      458     1287 1
    4680    10020    10487 1
    4681     6048     6061 1
    4682     3855     4998 1
    4683     9505    10401 1
    4684     2558     1957 1
    4685     7618     7932 1
    4686     3574     4265 1
    4687     6512     6776 1
    4688     7159     7179 1
    4689     2486     3146 1
    4690     1940     8752 1
    4691      497      566 1
    4692      754     1647 1
    4693     2963     1881 1
    4694     7331     7753 1
    4695     3143     3476 1
    4696     6869     7091 1
    4697     9094    10159 1
    4698      877      722 1
    4699     6698     7137 1
    4700     6536     7068 1
    4701      617     1099 1
    4702      836      607 1
    4703    10324    10720 1
    4704     3203     4579 1
    4705     1384      210 1
    4706     2472     3313 1
    4707     4774     5081 1
    4708     8275     8647 1
    4709      434     1552 1
    4710      796     1664 1
    4711     9343    10145 1
    4712     8875     7705 1
    4713     6618     6739 1
    4714     4756     4867 1
    4715      298     1705 1
    4716     9544     9721 1
    4717     9614    10151 1
    4718     2486     1902 1
    4719     6273     6542 1
    4720     2837     3323 1
    4721     5674     6743 1
    4722     6747     6816 1
    4723     9725    10093 1
    4724     4189     5018 1
    4725     3117     3316 1
    4726     6881     6947 1
    4727     4218     4659 1
    4728     9382     9413 1
    4729    10091    10355 1
    4730      767     1237 1
    4731      462      643 1
    4732     4331     5350 1
    4733     8760     8450 1
    4734     8885     6858 1
    4735     3027     2387 1
    4736     7347     8409 1
    4737     9431     9800 1
    4738     6106     6312 1
    4739     1858     2174 1
    4740     1162     1766 1
    4741     9315    10429 1
    4742     8872     7289 1
    4743     2626     2941 1
    4744       46      131 1
    4745     8898     7189 1
    4746     7254     7841 1
    4747     7394     8277 1
    4748     2592     2767 1
    4749     9971    10225 1
    4750     9915    10704 1
    4751     6308     6352 1
    4752     6266     6887 1
    4753     9562     9831 1
    4754     9730     9965 1
    4755     2732     2776 1
    4756     4369     4888 1
    4757     4442     4711 1
    4758     1435      271 1
    4759     4114     4975 1
    4760     3051     2478 1
    4761     9102     9554 1
    4762      608     4665 1
    4763     9786     9866 1
    4764     3642     4074 1
    4765     2602     3406 1
    4766      237     6099 1
    4767     4691     4861 1
    4768     2703     1825 1
    4769     8895     7172 1
    4770     1329     1615 1
    4771     7587     7617 1
    4772     8788     7851 1
    4773     3796     9676 1
    4774     7331     7881 1
    4775     2044     2115 1
    4776     9703    10388 1
    4777      567     1105 1
    4778      803      473 1
    4779     2663     3406 1
    4780     7886     8630 1
    4781     3180     3208 1
    4782     5745     6191 1
    4783     2386     3375 1
    4784     5377     6436 1
    4785     9398     9609 1
    4786      463      551 1
    4787     7119     9484 1
    4788     9277    10530 1
    4789     9094     9444 1
    4790      557     6334 1
    4791     3044     2285 1
    4792     2545     3521 1
    4793      986     1103 1
    4794     2483     3444 1
    4795     3740     4461 1
    4796     2509     3538 1
    4797     2034     2240 1
    4798     6314     6874 1
    4799     4684     5246 1
    4800      809      263 1
    4801     2885     3115 1
    4802     7349     8686 1
    4803     6125     6807 1
    4804     3286     1879 1
    4805     1029      685 1
    4806     5596     6727 1
    4807     3701     9629 1
    4808     2027     3404 1
    4809     9138     9398 1
    4810     2959     1964 1
    4811      961     1760 1
    4812     4530     5073 1
    4813     3296     3552 1
    4814     2815     1836 1
    4815     8731     8631 1
    4816      841      554 1
    4817     2099     2162 1
    4818     9290     9317 1
    4819     4707     4938 1
    4820     8956     9137 1
    4821     9495    10216 1
    4822     7817     7851 1
    4823     3292     3547 1
    4824       44     1575 1
    4825     7353     8119 1
    4826     4345     5164 1
    4827     1139     1414 1
    4828     3348     2066 1
    4829     2515     2894 1
    4830     2659     1859 1
    4831     2964     3192 1
    4832     1872     1903 1
    4833      512     1112 1
    4834     6381     6749 1
    4835     2653     1809 1
    4836     4489     4539 1
    4837     2446     2029 1
    4838     8303     8682 1
    4839     4167     4585 1
    4840     9087     9857 1
    4841     5520     6991 1
    4842     4594     4873 1
    4843     5619     5878 1
    4844     2962     3033 1
    4845    10052    10304 1
    4846     3103     2250 1
    4847     2805     3302 1
    4848     9539    10196 1
    4849     8275     8462 1
    4850     4406     4807 1
    4851     3145     2171 1
    4852     3610     4025 1
    4853     5839     6606 1
    4854     7406     7775 1
    4855     3793     5247 1
    4856     1877     2157 1
    4857     2864     2237 1
    4858     1004      211 1
    4859     3609     3752 1
    4860     3176     3458 1
    4861     2788     2166 1
    4862     8166     8687 1
    4863     8976    10515 1
    4864    10212    10363 1
    4865     2026     2250 1
    4866     2412     7808 1
    4867     2287     7974 1
    4868     3779     4860 1
    4869      781     1084 1
    4870     7564     8219 1
    4871     7422     8028 1
    4872     3786     4686 1
    4873     5675     6800 1
    4874     4368     4527 1
    4875     8090     8403 1
    4876     3990     5109 1
    4877     8899     7255 1
    4878     2691     3130 1
    4879     1743     1536 1
    4880     7738     8168 1
    4881     5502     5955 1
    4882     2628     3335 1
    4883     8914     8255 1
    4884     2842     1788 1
    4885     2784     3337 1
    4886     8763     7563 1
    4887     3206     3535 1
    4888     3678     4869 1
    4889     4233     4342 1
    4890     9505    10361 1
    4891     5497     6238 1
    4892     2937     3452 1
    4893     5200     5266 1
    4894     1318      113 1
    4895     2425     1929 1
    4896     6796     6857 1
    4897     3731     4885 1
    4898    10099    10127 1
    4899     3610     4062 1
    4900     7451     7538 1
    4901     1829     1832 1
    4902     9025    10655 1
    4903     7551     8658 1
    4904     9021     9305 1
    4905     1721       75 1
    4906     9267     9627 1
    4907     3806     4219 1
    4908     8172     8601 1
    4909     7499     7669 1
    4910     7214     8131 1
    4911     4456     9557 1
    4912     3569     4593 1
    4913     1006      314 1
    4914     7911     8703 1
    4915     1454      317 1
    4916     9807    10563 1
    4917     3792     4390 1
    4918     7260     7589 1
    4919     2740     3112 1
    4920     4721     5102 1
    4921    10032    10461 1
    4922     4116     4592 1
    4923     3877     5006 1
    4924     8848     8054 1
    4925     7477     8247 1
    4926     5385     6404 1
    4927     6122     6189 1
    4928     5885     6398 1
    4929     4743     4814 1
    4930     3931     4266 1
    4931     7213     7968 1
    4932     8874     8163 1
    4933     3986     5177 1
    4934     4034     4371 1
    4935     2722     2143 1
    4936     4311     4758 1
    4937     4233    10625 1
    4938     4396     4663 1
    4939    10004    10008 1
    4940     8054     8269 1
    4941     7390     7893 1
    4942      328      256 1
    4943     9059     9427 1
    4944     2674     3180 1
    4945      434      622 1
    4946     2707     1979 1
    4947     4274     5209 1
    4948     2475     1796 1
    4949     5383     7108 1
    4950     7910     8449 1
    4951     5462     5664 1
    4952     1397      259 1
    4953     8747     7976 1
    4954     4498     4715 1
    4955     8016     8160 1
    4956     1210      298 1
    4957     9087     9745 1
    4958      453     1316 1
    4959    10096    10190 1
    4960     4466     5004 1
    4961     9855    10108 1
    4962     7393     7394 1
    4963     9798    10100 1
    4964     5443     5476 1
    4965     2382     7177 1
    4966     4426     4879 1
    4967     7584     7926 1
    4968     5876     6627 1
    4969     9419     9482 1
    4970     4092     4502 1
    4971     5738     5931 1
    4972     1985     2183 1
    4973     3619     4665 1
    4974     2518     2853 1
    4975      625      302 1
    4976     7982     8628 1
    4977     1803     1894 1
    4978    10058    10617 1
    4979     6021     6897 1
    4980       53     1621 1
    4981     6165     6438 1
    4982     2614     2181 1
    4983     3666     5243 1
    4984     7641     8254 1
    4985     3715     5072 1
    4986     2885     2048 1
    4987      512       81 1
    4988     2600     3473 1
    4989     6146     6447 1
    4990     8245     9489 1
    4991     4473     4759 1
    4992       32     1041 1
    4993     6204     6913 1
    4994     2417     3515 1
    4995     2521     2487 1
    4996     2709     2759 1
    4997     2855     2158 1
    4998     9425     9778 1
    4999     9369    10660 1
    5000     9392    10206 1
    5001     6045     6593 1
    5002     5742     6772 1
    5003     4416     4666 1
    5004     3954     4761 1
    5005     9221    10067 1
    5006      463     1397 1
    5007     1715      230 1
    5008     2630     2475 1
    5009     2237     2296 1
    5010     2397     3331 1
    5011     2871     2207 1
    5012     3547     8780 1
    5013     2020     3370 1
    5014     3280     4195 1
    5015     5917     6259 1
    5016     3927     4808 1
    5017     2484     1783 1
    5018     8843     7957 1
    5019     4676     5097 1
    5020     5389     6387 1
    5021     9052    10512 1
    5022     3324     1960 1
    5023     2865     2471 1
    5024     1303     1581 1
    5025     8755     8400 1
    5026     9494    10533 1
    5027     9224    10427 1
    5028     8122     8147 1
    5029     3014     1959 1
    5030      478     1437 1
    5031     5368     6058 1
    5032     4232     9571 1
    5033     7217     7555 1
    5034     8847     8527 1
    5035     4028     5070 1
    5036     2888     3229 1
    5037     5767     6587 1
    5038     6409     7136 1
    5039     7767     8050 1
    5040     6500     6565 1
    5041     6190     6997 1
    5042     6115     7066 1
    5043     9685    10076 1
    5044     7231     7923 1
    5045     2572     1798 1
    5046     5870     6475 1
    5047      701     1478 1
    5048     2753     2169 1
    5049     1144      293 1
    5050     9432     9647 1
    5051     5718     6044 1
    5052     9528    10438 1
    5053     3780     4367 1
    5054     3901     5296 1
    5055     4256     4673 1
    5056     3164     2046 1
    5057     4228     4763 1
    5058     3225     3251 1
    5059     4622     5068 1
    5060     4558     5341 1
    5061     6079     6262 1
    5062     7884     8096 1
    5063     4659     5210 1
    5064     4339     4982 1
    5065     1793     3555 1
    5066     3605     4483 1
    5067     3647     3687 1
    5068     9364    10610 1
    5069     6838     7023 1
    5070      957     1208 1
    5071     4841     4862 1
    5072     2577     2183 1
    5073     8149     8614 1
    5074     6375     6998 1
    5075     5427     6583 1
    5076     3908     5242 1
    5077     4238     4433 1
    5078     5595     7016 1
    5079      898     1435 1
    5080     4009     5150 1
    5081     1314      301 1
    5082     2854     3561 1
    5083     4222     5243 1
    5084     9872    10409 1
    5085     4637     5352 1
    5086     4065     4483 1
    5087     9412    10705 1
    5088     7526     8557 1
    5089     8907     8090 1
    5090     9207     9812 1
    5091     2515     3401 1
    5092     4520     4894 1
    5093      459      571 1
    5094     9868    10480 1
    5095       13      699 1
    5096    10050    10469 1
    5097      717     1693 1
    5098     3985     3993 1
    5099     9496    10347 1
    5100     6062     6578 1
    5101     2391     1097 1
    5102     7876     8236 1
    5103     5875     6553 1
    5104      547     1646 1
    5105     1460      268 1
    5106     9497     9838 1
    5107     2767     3101 1
    5108     8757     7996 1
    5109     3155     3510 1
    5110     1271     1421 1
    5111     8325     8396 1
    5112     7241     8326 1
    5113      802      153 1
    5114      463     1302 1
    5115     2726     2020 1
    5116     2674     3123 1
    5117     7598     7657 1
    5118     8821     7970 1
    5119     3941     5255 1
    5120     3019     3399 1
    5121     7934     8040 1
    5122     9205     9602 1
    5123     3174     2066 1
    5124     2764     3186 1
    5125     6691     6933 1
    5126     1119       66 1
    5127     2910     3519 1
    5128    10171    10345 1
    5129     3101     8429 1
    5130     3380     4929 1
    5131     3956     4574 1
    5132     3337     2164 1
    5133     8383     8599 1
    5134     8974     9413 1
    5135     6236     6286 1
    5136     5825     6863 1
    5137     9443    10052 1
    5138     5899     6601 1
    5139     2148     3487 1
    5140     7528     8624 1
    5141     3009     2146 1
    5142     2996     2315 1
    5143     9534     9669 1
    5144     5698     6205 1
    5145     7745     8165 1
    5146     4224     5047 1
    5147      960      454 1
    5148     6097     6472 1
    5149     5693     6462 1
    5150     5595     6949 1
    5151     9150    10086 1
    5152     9867     9945 1
    5153      878     1670 1
    5154     9919    10403 1
    5155     8830     7386 1
    5156       48     1156 1
    5157     1248     1767 1
    5158     8773     8166 1
    5159     3712     4370 1
    5160     9308    10201 1
    5161     2636     2883 1
    5162     3160     1784 1
    5163     7564     8382 1
    5164     3586     4875 1
    5165     7878     8216 1
    5166     3697     3893 1
    5167     6852     6925 1
    5168     9107     9624 1
    5169     8019     8639 1
    5170     1148      139 1
    5171     6154     6256 1
    5172     9020    10549 1
    5173     5494     7373 1
    5174     7409     8227 1
    5175     4622     5037 1
    5176     5737     7057 1
    5177     5908     5924 1
    5178     1989     3448 1
    5179      937      634 1
    5180     2111     2242 1
    5181     9653    10044 1
    5182     5601     5952 1
    5183     4131     5143 1
    5184     6321     6780 1
    5185     8777     8315 1
    5186     3806     5127 1
    5187     3951     4020 1
    5188     2851     2337 1
    5189      834      488 1
    5190     7823     8378 1
    5191     2063     3487 1
    5192     8290     8575 1
    5193     1416       55 1
    5194     9155    10298 1
    5195     5603     6293 1
    5196     1324      117 1
    5197       19     1523 1
    5198     4033     4642 1
    5199     8793     8102 1
    5200     3700     4365 1
    5201     5635     6168 1
    5202     6340     6764 1
    5203     9113    10169 1
    5204      854     1158 1
    5205     2582     2956 1
    5206     2382     3408 1
    5207     1313     1569 1
    5208     6253     6489 1
    5209      694     1664 1
    5210     3013     3382 1
    5211     7373     7970 1
    5212     4758     4767 1
    5213     5516     5836 1
    5214     3679     4007 1
    5215     3814     4020 1
    5216     3983     4485 1
    5217     5914     6085 1
    5218     4368     4643 1
    5219     7615     7949 1
    5220     8849     7425 1
    5221     9822    10168 1
    5222      808     5646 1
    5223     9780     9961 1
    5224     8877     8036 1
    5225     9084    10436 1
    5226     7553     8113 1
    5227     6439     6700 1
    5228     9194    10443 1
    5229     3015     3478 1
    5230     5478     5847 1
    5231     6326     6866 1
    5232     4723     4752 1
    5233     6153     6385 1
    5234     1020     1054 1
    5235     3321     3555 1
    5236     4343     5264 1
    5237     9437     9529 1
    5238     3905     5079 1
    5239    10102    10284 1
    5240     9515    10370 1
    5241     7262     8329 1
    5242     4708     5238 1
    5243     3327     3500 1
    5244     6262     6494 1
    5245     9694     9826 1
    5246     7895     8031 1
    5247     2503     2745 1
    5248     5692     6853 1
    5249     9321    10683 1
    5250     2710     3290 1
    5251     2104     2258 1
    5252     7232     7643 1
    5253     7399     8545 1
    5254     3608     5193 1
    5255      995      305 1
    5256      801     1319 1
    5257     3730     3771 1
    5258     8864     7536 1
    5259     4263     4799 1
    5260     2915     2033 1
    5261    10311    10391 1
    5262    10129    10449 1
    5263     5545     6370 1
    5264     9442    10199 1
    5265     7579     8702 1
    5266     8917     7326 1
    5267     2793     3472 1
    5268     8051     8493 1
    5269     8042     8294 1
    5270     8887     7905 1
    5271     6552     7051 1
    5272     4385     4495 1
    5273     5503     6848 1
    5274     4126     4931 1
    5275     7206     8504 1
    5276     2960     1949 1
    5277      461     1269 1
    5278     9184     9872 1
    5279     9190     9397 1
    5280     5395     5833 1
    5281     6750     7121 1
    5282     4203     5342 1
    5283     7620     8585 1
    5284     5712     5853 1
    5285     1226      221 1
    5286     3094     1946 1
    5287     4557     4568 1
    5288     2544     3114 1
    5289     5457     6219 1
    5290     6750     7131 1
    5291     9593    10550 1
    5292      793     1141 1
    5293     1824     3359 1
    5294     4174     5123 1
    5295     8105     8358 1
    5296     5431     5855 1
    5297     1045     1297 1
    5298     2684     3225 1
    5299    10370    10640 1
    5300     5496     6402 1
    5301     7612     8549 1
    5302     4052     4325 1
    5303     2516     2873 1
    5304     3084     3560 1
    5305     4859     5299 1
    5306     4320     4340 1
    5307     6074     7002 1
    5308     3744     5338 1
    5309     8957     8963 1
    5310       37       18 1
    5311     1473     1502 1
    5312     3855     5325 1
    5313     6207     6826 1
    5314     3098     1930 1
    5315     1099     1603 1
    5316     2966     1902 1
    5317     5379     6763 1
    5318     1370      338 1
    5319     9983    10693 1
    5320     3026     1948 1
    5321     2073     3360 1
    5322     7714     8130 1
    5323     6616     6631 1
    5324     3693     3811 1
    5325       61      263 1
    5326    10048    10137 1
    5327    10078    10086 1
    5328     1094      219 1
    5329     6442     7000 1
    5330     4574     4978 1
    5331     4348     5330 1
    5332     1323     1469 1
    5333     4005     4617 1
    5334     7403     8369 1
    5335     5941     6083 1
    5336     1870     3464 1
    5337      762     1232 1
    5338     2110     2208 1
    5339     2338     1950 1
    5340     3597     5221 1
    5341     4452     4970 1
    5342     4267     4699 1
    5343     4512     4555 1
    5344     2540     1857 1
    5345     8163     8460 1
    5346     9524     9892 1
    5347     6055     7099 1
    5348     1109      128 1
    5349     3065     2142 1
    5350     7495     7621 1
    5351     9052     9702 1
    5352      604     1727 1
    5353      872      922 1
    5354     2657     2742 1
    5355     5472     6664 1
    5356     1833     3511 1
    5357      919     1438 1
    5358     8745     8162 1
    5359     2780     3192 1
    5360     2587     3106 1
    5361     3752     3980 1
    5362     2566     3541 1
    5363     2353     1786 1
    5364     5942     7111 1
    5365     7982     8654 1
    5366    10158    10184 1
    5367     9137     9573 1
    5368     5894     6911 1
    5369     4690     5060 1
    5370     2696     1865 1
    5371     4979     5183 1
    5372     7815     8497 1
    5373     9574    10393 1
    5374     4081     4817 1
    5375     2312     3192 1
    5376     9927    10243 1
    5377     6165     6399 1
    5378     4189     4470 1
    5379     5446     5673 1
    5380     2545      326 1
    5381     3004     3381 1
    5382    10242    10685 1
    5383     7493     8695 1
    5384     7675     8699 1
    5385     8305     8380 1
    5386     7695     7989 1
    5387     2738     3489 1
    5388     7703     8060 1
    5389     8124     8549 1
    5390      655      773 1
    5391     8420     8706 1
    5392     9758    10404 1
    5393     2684     3453 1
    5394     5751     6970 1
    5395     8982     9438 1
    5396     7630     8509 1
    5397     5356     5947 1
    5398     7506     8372 1
    5399     7161     8673 1
    5400     9161     9463 1
    5401     7124     7275 1
    5402     8838     8245 1
    5403     8922     8662 1
    5404     8840     7753 1
    5405     1056     1282 1
    5406     9508    10515 1
    5407     1908     1975 1
    5408     5699     6010 1
    5409     3638     3917 1
    5410     7425     8191 1
    5411     9249    10635 1
    5412     2082     2108 1
    5413     1336      167 1
    5414     3804     4949 1
    5415     2605     2329 1
    5416     1255     1419 1
    5417     3692     4347 1
    5418     1270      316 1
    5419     9125     9551 1
    5420    10605    10620 1
    5421     3193     2208 1
    5422     7197     8105 1
    5423     4217     5178 1
    5424     7889     8542 1
    5425     9434    10116 1
    5426     9900    10359 1
    5427     5995     6813 1
    5428     4589     4676 1
    5429     9183    10563 1
    5430    10182    10307 1
    5431     1723      144 1
    5432     3224     2161 1
    5433     5358     5438 1
    5434     3762     4021 1
    5435      977     1183 1
    5436     4140     4863 1
    5437     1350     1777 1
    5438     7442     7468 1
    5439      999      408 1
    5440     5605     5625 1
    5441     3810     5205 1
    5442     9276     9604 1
    5443     8800     7179 1
    5444     1418      140 1
    5445     9059    10563 1
    5446     9172    10080 1
    5447     5715     6084 1
    5448     4223     4426 1
    5449     1973     3514 1
    5450     9055     9438 1
    5451     6137     6295 1
    5452     7867     8620 1
    5453       49      193 1
    5454     5594     5830 1
    5455     9253    10396 1
    5456     5392     6480 1
    5457     8008     8578 1
    5458     8828     7434 1
    5459     4047     4656 1
    5460     7913     8333 1
    5461     4492     4570 1
    5462     9031    10444 1
    5463     9722     9970 1
    5464     4905     5104 1
    5465     4410     4485 1
    5466     5367     5815 1
    5467     5892     6635 1
    5468     9789    10686 1
    5469     8847     8576 1
    5470     6210     6843 1
    5471     8866     7443 1
    5472     6684     6909 1
    5473      508       77 1
    5474     4478     4574 1
    5475     4025     4965 1
    5476     7726     8431 1
    5477     4043     4105 1
    5478     9200     9458 1
    5479     9724    10008 1
    5480     8196     8464 1
    5481     3075     1918 1
    5482     9315    10685 1
    5483     9854    10032 1
    5484     4538     9497 1
    5485     9487    10587 1
    5486     9686     9887 1
    5487    10105    10704 1
    5488     8814     8829 1
    5489     1024      135 1
    5490     3901     4297 1
    5491     1875     2097 1
    5492       29      305 1
    5493     2508     2854 1
    5494     9142    10073 1
    5495     4474     4789 1
    5496     7953     8571 1
    5497     3811     4244 1
    5498     8753     7305 1
    5499     7313     8466 1
    5500     2706     3255 1
    5501     4794     5282 1
    5502      941     1044 1
    5503     4650     5185 1
    5504     9026     9042 1
    5505     4088     4893 1
    5506     2809     2335 1
    5507     2605     2715 1
    5508      597     1255 1
    5509     7382     8511 1
    5510     3619     5075 1
    5511     7480     7732 1
    5512     2594     1863 1
    5513     5445     5461 1
    5514     8781     7655 1
    5515     1206     1398 1
    5516     7572     8421 1
    5517     7280     8406 1
    5518     1706     1628 1
    5519     5437     6842 1
    5520     1767     1508 1
    5521     9286    10046 1
    5522     7327     8294 1
    5523     8470     8696 1
    5524     7453     8523 1
    5525     9751    10701 1
    5526     8772     7190 1
    5527     4561     4610 1
    5528     7201     8655 1
    5529      288     1533 1
    5530     9048     9970 1
    5531     5002     5064 1
    5532     5714     6081 1
    5533     5642     6752 1
    5534     9342    10437 1
    5535     7757     8153 1
    5536     8353     8413 1
    5537     4969     5128 1
    5538     3939     5057 1
    5539     5728     6015 1
    5540     1055     1256 1
    5541     7426     8453 1
    5542     2016     7877 1
    5543     7696     8252 1
    5544     4304     4660 1
    5545     3963     4377 1
    5546     6640     6812 1
    5547     9134    10347 1
    5548     1422     1745 1
    5549     2822     3014 1
    5550     7522     8588 1
    5551     4303     4372 1
    5552     3045     1981 1
    5553     5621     5847 1
    5554      554      423 1
    5555     3123     1947 1
    5556     8724     7186 1
    5557     3030     1855 1
    5558     2892     3546 1
    5559      985     1301 1
    5560      692     1304 1
    5561     1023     1492 1
    5562    10370    10706 1
    5563     6054     6765 1
    5564     3782     3999 1
    5565     4838     4989 1
    5566     2893     2172 1
    5567     2606     2402 1
    5568      891      131 1
    5569     4726     5229 1
    5570     1319      187 1
    5571     9664    10245 1
    5572     9206     9749 1
    5573     4184     5045 1
    5574     2542     2834 1
    5575     5580     6793 1
    5576     5777     6668 1
    5577     6038     8352 1
    5578     9210    10605 1
    5579     8878     7341 1
    5580     9502     9773 1
    5581     7243     8645 1
    5582     8900     8906 1
    5583     1445     1688 1
    5584     7218     7900 1
    5585     7348     8279 1
    5586     4652     9736 1
    5587     2938     2222 1
    5588     2827     3236 1
    5589     5617     5739 1
    5590     7147     8708 1
    5591      679     1145 1
    5592     7493     8348 1
    5593     3675     4814 1
    5594     8878     8441 1
    5595     7387     7732 1
    5596     3031     2170 1
    5597     9514     9674 1
    5598     7265     7631 1
    5599     1159     1342 1
    5600     7969     8693 1
    5601     4028     5309 1
    5602     4052     4080 1
    5603     1275      185 1
    5604     7539     8205 1
    5605     9425    10598 1
    5606     7901     8607 1
    5607     2019     2064 1
    5608     5197     5274 1
    5609        5      570 1
    5610      789     1474 1
    5611     7471     7829 1
    5612     2448     2227 1
    5613     5355     5998 1
    5614     2746     2212 1
    5615     2687     1881 1
    5616     9131    10285 1
    5617     3786     4109 1
    5618    10046    10388 1
    5619     2673     3411 1
    5620     2601     2788 1
    5621     2923     2016 1
    5622     3112     2233 1
    5623     7162     7371 1
    5624     2910     3080 1
    5625     6664     6907 1
    5626     2744     3289 1
    5627     2757     2378 1
    5628     3785     4170 1
    5629     4255     4648 1
    5630     9466    10265 1
    5631     6211     6314 1
    5632     6362     6719 1
    5633     5668     5908 1
    5634     6283     6801 1
    5635     6478     6549 1
    5636     2219     3602 1
    5637     1355       63 1
    5638     1037      800 1
    5639     9023     9057 1
    5640     3834     4363 1
    5641     3709     4879 1
    5642     2171     2242 1
    5643     3207     3526 1
    5644     1608     3537 1
    5645     9058    10004 1
    5646     4745     4975 1
    5647      530     1313 1
    5648     7626     7905 1
    5649     1213     1463 1
    5650     6285     6757 1
    5651     6036     6335 1
    5652      494      143 1
    5653     6053     6838 1
    5654     7702     8053 1
    5655     5909    10040 1
    5656     8284     8292 1
    5657     6218     6543 1
    5658     6677     6932 1
    5659     7880     8122 1
    5660     4500     4552 1
    5661     7718     8714 1
    5662     1388      254 1
    5663     7673     8420 1
    5664     4062     5340 1
    5665     4188     4709 1
    5666     3185     1864 1
    5667     5919     6476 1
    5668     2839     3450 1
    5669     3121     3556 1
    5670     3829     5004 1
    5671     7198     7647 1
    5672     1311     1494 1
    5673     4364     4737 1
    5674     7354     8267 1
    5675     8964     9361 1
    5676      942     1759 1
    5677     9545    10665 1
    5678     8230     8711 1
    5679     9435     9507 1
    5680     2439     3456 1
    5681     2758     2298 1
    5682     3736     4615 1
    5683     9818    10565 1
    5684    10238    10721 1
    5685     8848     8693 1
    5686      336     1659 1
    5687     8627    10178 1
    5688     7368     8313 1
    5689     1113     1659 1
    5690     8892     7450 1
    5691     5535     6834 1
    5692     9957    10538 1
    5693     9375    10654 1
    5694     5862     6622 1
    5695       68     6476 1
    5696     1035     1041 1
    5697     8760     7997 1
    5698     4493     5108 1
    5699     2881     1956 1
    5700     5966     6954 1
    5701      599     1626 1
    5702     4781     5011 1
    5703     4324     5028 1
    5704      556      170 1
    5705     6162     6534 1
    5706     3738     5109 1
    5707     7586     8531 1
    5708     5538     6186 1
    5709     7886     8282 1
    5710     2725     2417 1
    5711     1587      221 1
    5712      769      526 1
    5713     3756     5171 1
    5714     6004     6863 1
    5715     5505     6103 1
    5716     8815     7271 1
    5717     5482     6716 1
    5718     5870     6010 1
    5719     9535    10711 1
    5720     4175     5260 1
    5721     9024     9961 1
    5722     5375     5381 1
    5723     3850     4753 1
    5724     8798     7348 1
    5725     4303     4541 1
    5726     6091     6463 1
    5727     5407     6779 1
    5728     8264     8659 1
    5729     3095     1842 1
    5730     9613    10290 1
    5731     3285     2176 1
    5732     3779     5017 1
    5733     8155     8558 1
    5734     6569    10201 1
    5735     4106     4441 1
    5736     3027     3150 1
    5737     4124     5184 1
    5738     9284    10390 1
    5739     4030     4885 1
    5740      566      327 1
    5741     7910     8700 1
    5742     4329     4799 1
    5743     9553    10192 1
    5744     4350     4717 1
    5745      595      431 1
    5746     2568     2688 1
    5747     5151     5214 1
    5748     5435     6462 1
    5749     2430     2099 1
    5750     9044     9946 1
    5751     8305     8334 1
    5752     7567     7695 1
    5753     9182     9595 1
    5754     6717     6756 1
    5755     5816     8237 1
    5756     4089     4359 1
    5757      523      545 1
    5758     9749     9818 1
    5759      718      359 1
    5760     4066     4825 1
    5761     1993     2141 1
    5762     6123     6814 1
    5763     3628     5165 1
    5764     5606     6579 1
    5765     8954     9072 1
    5766     9052    10367 1
    5767     1306      315 1
    5768      385     1745 1
    5769     6200     6382 1
    5770     5785     6039 1
    5771     3385     3425 1
    5772     2406     2135 1
    5773     3129     1958 1
    5774     9813    10282 1
    5775     3584     4641 1
    5776     7248     7910 1
    5777     4730     4787 1
    5778     2918     3338 1
    5779     3635     4786 1
    5780     3639     5325 1
    5781     3679     4016 1
    5782     7459     7791 1
    5783     5486     6927 1
    5784     3124     3347 1
    5785     3888     4078 1
    5786     8969    10592 1
    5787      774      259 1
    5788      925      432 1
    5789     2898     2341 1
    5790     6650     6766 1
    5791     8958    10248 1
    5792     1723       97 1
    5793     7192     7606 1
    5794     9298     9877 1
    5795     4533     5203 1
    5796     6248     6754 1
    5797     2120     3393 1
    5798     2434     3492 1
    5799     8927     8499 1
    5800     5480     6495 1
    5801     4299     4879 1
    5802     4819     4834 1
    5803     1451      418 1
    5804     9174    10025 1
    5805       26     1306 1
    5806     3649     3927 1
    5807     1028      113 1
    5808     9703    10269 1
    5809     3962     4460 1
    5810     1289     1491 1
    5811     6245     6459 1
    5812     6407     7037 1
    5813     9837    10088 1
    5814     5439     6058 1
    5815     3649     5251 1
    5816     4969     5019 1
    5817     3005     2042 1
    5818     4092     4882 1
    5819     7272     8563 1
    5820     4414     5051 1
    5821      923     1512 1
    5822     7222     8564 1
    5823     3904     4073 1
    5824     3877     4213 1
    5825     8866     8693 1
    5826     3278     3466 1
    5827     5444     7077 1
    5828     6755     6860 1
    5829     3861     4336 1
    5830     5971     5973 1
    5831     5546     6511 1
    5832     2756     2126 1
    5833     9371     9879 1
    5834     6411     6647 1
    5835     2575     3015 1
    5836     7174     7852 1
    5837     3107     3330 1
    5838      458      391 1
    5839     4381     5259 1
    5840     3977     4667 1
    5841     3037     4640 1
    5842     5559     5761 1
    5843     1990     2035 1
    5844     9052    10266 1
    5845      444     1737 1
    5846     2563     3379 1
    5847     4366     9590 1
    5848     4365     4507 1
    5849     1841     2042 1
    5850     7408     7671 1
    5851     3024     2418 1
    5852     5967     7087 1
    5853     5724     6575 1
    5854     3712     4605 1
    5855     7703     7977 1
    5856     4682     4719 1
    5857     5564     6416 1
    5858     6374     7077 1
    5859     1292      165 1
    5860     2031     2074 1
    5861     5487     5701 1
    5862     5785     6203 1
    5863     7784     8650 1
    5864     5588     7040 1
    5865     2591     1823 1
    5866     1974     2201 1
    5867     3617     4490 1
    5868     9053    10242 1
    5869      494     1455 1
    5870     2545     2265 1
    5871     8638     8639 1
    5872     8029     8669 1
    5873     2510     2375 1
    5874     2710     1837 1
    5875     8989     9865 1
    5876     5567     5717 1
    5877     3188     1927 1
    5878     6462     6965 1
    5879     1108      390 1
    5880     5860     7138 1
    5881     6310     6582 1
    5882     5649     7041 1
    5883     5423     6288 1
    5884     9086     9812 1
    5885     9355    10393 1
    5886     8742     7206 1
    5887      340     1611 1
    5888     6067     6496 1
    5889     1695     1749 1
    5890      618      231 1
    5891     4333     5119 1
    5892     1099      416 1
    5893     2459     3297 1
    5894     9544    10431 1
    5895    10155    10600 1
    5896     2731     2416 1
    5897     4693     5320 1
    5898     3177     1810 1
    5899     4306     4635 1
    5900     2773     3089 1
    5901     6188     7132 1
    5902     2440     1917 1
    5903     3838     4230 1
    5904     9440    10718 1
    5905     7312     8544 1
    5906     5690     5793 1
    5907     5982     6182 1
    5908     4266     4315 1
    5909     2472     3520 1
    5910     4196     4243 1
    5911     2720     2773 1
    5912      525      226 1
    5913     4564     5122 1
    5914     4275     4380 1
    5915     5547     5778 1
    5916     5680     6177 1
    5917      949     1070 1
    5918     2504     3014 1
    5919     7744     8140 1
    5920     9581     9791 1
    5921     4182     4376 1
    5922     7232     8519 1
    5923      630     5066 1
    5924     1787     1866 1
    5925     2614     3418 1
    5926     9616    10359 1
    5927     2933     1973 1
    5928     9263     9507 1
    5929     2792     2397 1
    5930     3904     4775 1
    5931     5359     6316 1
    5932     5494     6781 1
    5933     9141    10029 1
    5934     4773     5266 1
    5935     8297     8561 1
    5936     9260     9415 1
    5937     1681      262 1
    5938     8878     8656 1
    5939     1752      113 1
    5940     2414     1983 1
    5941     2624     2804 1
    5942     2718     3143 1
    5943     4177     4903 1
    5944     5780     5810 1
    5945     2349     2107 1
    5946     5584     7076 1
    5947     3745     4822 1
    5948     9963    10438 1
    5949      439     1152 1
    5950       48     1624 1
    5951    10115    10646 1
    5952     2728     2119 1
    5953     6557     6880 1
    5954     1296     1507 1
    5955     6505     6790 1
    5956     5391     6891 1
    5957     9791    10401 1
    5958     3566     4619 1
    5959     3971     5088 1
    5960     3406     8027 1
    5961     9247    10293 1
    5962     8898     8224 1
    5963     1998     3553 1
    5964     7859     8256 1
    5965     4483     5270 1
    5966     4889     5272 1
    5967      470       69 1
    5968     8776     7867 1
    5969     9662     9936 1
    5970     1114     1152 1
    5971      810     1195 1
    5972     7590     7779 1
    5973     2702     1933 1
    5974     7623     8391 1
    5975      914      153 1
    5976     5372     5511 1
    5977     6430     7988 1
    5978      793      482 1
    5979     2550     1888 1
    5980     1872     2211 1
    5981     4159     4980 1
    5982     8984     9819 1
    5983    10458    10510 1
    5984     1195     1669 1
    5985     4627     4631 1
    5986     8285     8350 1
    5987     4100     4352 1
    5988      555      111 1
    5989     8894     7522 1
    5990     8521     8704 1
    5991     8541     8620 1
    5992     7770     7947 1
    5993     7555     8556 1
    5994     2698     2002 1
    5995     6397     6444 1
    5996     7200     8543 1
    5997     4639     5152 1
    5998     5701     6572 1
    5999     9456     9913 1
    6000     1070      376 1
    6001      381     1686 1
    6002     3414     8915 1
    6003     9827    10333 1
    6004     9957    10342 1
    6005     7780     7837 1
    6006     7740     7925 1
    6007      293     1576 1
    6008     3037     5210 1
    6009     4678     4930 1
    6010     3604     5099 1
    6011     9625    10263 1
    6012     8772     7961 1
    6013     6578     6825 1
    6014      271      282 1
    6015     7390     7805 1
    6016     8961     9240 1
    6017     3975     4494 1
    6018     1865     2008 1
    6019     3602     4036 1
    6020     9625    10718 1
    6021     4008     5061 1
    6022     6764     6811 1
    6023     2394     2047 1
    6024     2116     3517 1
    6025     6058     6206 1
    6026      835      329 1
    6027     1920     4529 1
    6028     1608       87 1
    6029     9003    10076 1
    6030     9611     9875 1
    6031     3913     4040 1
    6032     3263     4804 1
    6033     1738     5065 1
    6034     8142     8190 1
    6035     7268     8257 1
    6036     2049     2060 1
    6037     3655     4733 1
    6038     7144     7844 1
    6039     4797     4971 1
    6040     7757     8554 1
    6041     4822     4987 1
    6042     5823     5898 1
    6043     7174     8189 1
    6044     3611     4848 1
    6045     1113     5421 1
    6046     2667     3013 1
    6047     5896     6952 1
    6048      483     1238 1
    6049     3637     5159 1
    6050     1746      126 1
    6051     5577     5796 1
    6052     6063     6596 1
    6053     4125     4819 1
    6054     2640     3508 1
    6055     6489     6675 1
    6056     4353     4530 1
    6057     9502    10193 1
    6058     3737     4795 1
    6059     5424     6184 1
    6060     2626     4141 1
    6061     7611     8466 1
    6062     7794     7899 1
    6063     2737     2013 1
    6064      253      254 1
    6065     7855     8416 1
    6066     4760     5096 1
    6067        5     1051 1
    6068     5598     6428 1
    6069     1364       70 1
    6070     9365    10213 1
    6071     9017     9485 1
    6072     8826     8445 1
    6073     5922     6193 1
    6074     2593     2708 1
    6075     4497     4703 1
    6076      489      176 1
    6077     7484     8489 1
    6078     3969     4566 1
    6079     8105     8565 1
    6080     2911     3022 1
    6081     9345     9941 1
    6082     8002     8328 1
    6083     7833     8253 1
    6084     4620     5108 1
    6085     3564     4943 1
    6086     6401     6592 1
    6087     3111     2307 1
    6088     4612     5244 1
    6089     3075     3275 1
    6090     5964     6356 1
    6091       17       67 1
    6092     3124     2198 1
    6093    10060    10203 1
    6094     3633     4700 1
    6095     9762    10457 1
    6096     7758     7833 1
    6097     3912     3941 1
    6098     8743     7923 1
    6099     7480     7805 1
    6100     9003     9925 1
    6101     3603     4373 1
    6102      900      831 1
    6103     7155     8390 1
    6104     2020     3436 1
    6105     9678    10131 1
    6106      458      257 1
    6107     8316     8527 1
    6108      472      373 1
    6109     9505     9522 1
    6110     7454     8154 1
    6111     9876    10293 1
    6112     6160     6565 1
    6113     1156     1185 1
    6114     6477     6516 1
    6115     4415     4518 1
    6116     9685    10423 1
    6117     2616     3383 1
    6118     8912     7910 1
    6119     6297     6715 1
    6120     7725     8097 1
    6121     3816     4020 1
    6122     4693     5067 1
    6123     9746     9972 1
    6124     3676     4082 1
    6125     2508     2848 1
    6126     3881     4836 1
    6127     1802     1918 1
    6128     9180     9870 1
    6129     9042     9223 1
    6130     9145     9996 1
    6131     7546     8038 1
    6132     9701     9992 1
    6133     5708     7105 1
    6134      773      177 1
    6135     1827     3531 1
    6136     2521     1971 1
    6137     2091     2176 1
    6138     3924     4429 1
    6139     8941     9311 1
    6140     7452     8677 1
    6141      990     1001 1
    6142     5622     5890 1
    6143     5519     6670 1
    6144     3369     3534 1
    6145     7289     8635 1
    6146     2521     2877 1
    6147    10356    10375 1
    6148     9352    10487 1
    6149     9297    10220 1
    6150     8927     7827 1
    6151     9060    10520 1
    6152     4388     4500 1
    6153      738     1533 1
    6154     3911     4766 1
    6155     2873     2266 1
    6156     2246     3503 1
    6157     1071      420 1
    6158     2807     1954 1
    6159     9700     9909 1
    6160     1804     1983 1
    6161     9043     9363 1
    6162      134      252 1
    6163      981      532 1
    6164     9859    10210 1
    6165      762     1065 1
    6166     6177     7053 1
    6167    10072    10390 1
    6168     4667     5172 1
    6169     4352     4798 1
    6170      822     1552 1
    6171     6094     6487 1
    6172     2783     3415 1
    6173     8729     8417 1
    6174     2983     1889 1
    6175      848       65 1
    6176     1753     1758 1
    6177     3595     9541 1
    6178     5440     6166 1
    6179      979      806 1
    6180     2715     2024 1
    6181      265      335 1
    6182     6380     7044 1
    6183     9726    10149 1
    6184     9427     9939 1
    6185     9624    10446 1
    6186     4526     4848 1
    6187     5604     6359 1
    6188     9226    10135 1
    6189     7519     8201 1
    6190     7606     8545 1
    6191     9170     9224 1
    6192     7335     8543 1
    6193     4685     4820 1
    6194    10042    10544 1
    6195     9164     9948 1
    6196     3312     2224 1
    6197     3227     3246 1
    6198     1180      324 1
    6199      970     5917 1
    6200     2997     2176 1
    6201     9295    10185 1
    6202      555     1104 1
    6203     6647     6711 1
    6204    10279    10504 1
    6205     3001     3029 1
    6206     1493     1599 1
    6207     6300     6772 1
    6208     6615     6969 1
    6209     2539     2434 1
    6210     3969     4288 1
    6211     6216     7087 1
    6212       42     3998 1
    6213     7238     8301 1
    6214     4321     5217 1
    6215     4199     5033 1
    6216     2473      672 1
    6217     4883    10221 1
    6218     4997     5122 1
    6219     6340     6823 1
    6220      304      100 1
    6221     7488     9343 1
    6222     4982     5001 1
    6223     8146     8504 1
    6224     9579    10107 1
    6225     8841     8683 1
    6226     5692     7096 1
    6227     3232     1999 1
    6228     8876     7583 1
    6229     9090    10311 1
    6230      157      165 1
    6231     9767     9848 1
    6232     9635     9825 1
    6233     8115     8619 1
    6234     9205    10378 1
    6235     5731     6624 1
    6236     7407     8527 1
    6237     8911     7954 1
    6238     4054     4835 1
    6239     2561     3477 1
    6240      744     1191 1
    6241     4339     4499 1
    6242     1571      117 1
    6243     1440      379 1
    6244     8855     7761 1
    6245     5361     6288 1
    6246     4025     4114 1
    6247     5620     5709 1
    6248     4033     4743 1
    6249     5455     6501 1
    6250     9371    10562 1
    6251     6701     6925 1
    6252     9155    10233 1
    6253     4489     4962 1
    6254     7574     8446 1
    6255      135     5334 1
    6256     8842     8506 1
    6257     2560     2450 1
    6258     9217     9823 1
    6259     1241     1365 1
    6260     7384     8213 1
    6261     5800     6646 1
    6262      760     1444 1
    6263     8506     8649 1
    6264     2794     3062 1
    6265     9840    10554 1
    6266     1157     1705 1
    6267     6066     6114 1
    6268      855      104 1
    6269     2481     1925 1
    6270     4159     4661 1
    6271     5585     5980 1
    6272     8839     7894 1
    6273     9096     9416 1
    6274      992     1632 1
    6275     2684     2244 1
    6276     7972     8710 1
    6277     4730     5131 1
    6278     5760     6425 1
    6279      886     1395 1
    6280     5439     6592 1
    6281     1925     3356 1
    6282     9727    10172 1
    6283      848      639 1
    6284     4715     4981 1
    6285     3916     4281 1
    6286     7309     7770 1
    6287     7929     8356 1
    6288     3996     4779 1
    6289     1278      286 1
    6290     2900     2332 1
    6291     5563     6033 1
    6292     4237     4539 1
    6293     8884     7588 1
    6294     3827     4176 1
    6295    10056    10095 1
    6296     5805     5998 1
    6297     7225     8056 1
    6298     1964     3394 1
    6299     6483     6884 1
    6300      526     1713 1
    6301     1737     5162 1
    6302     3517     4408 1
    6303     7598     8227 1
    6304      707     1673 1
    6305     2381     2109 1
    6306     1260      206 1
    6307      453     1265 1
    6308     2950     2388 1
    6309     7572     8079 1
    6310     7784     8242 1
    6311     3103     1953 1
    6312     5622     7086 1
    6313     3182     2245 1
    6314     9033    10120 1
    6315     9643    10714 1
    6316     5426     6750 1
    6317     7176     8011 1
    6318     3271     1929 1
    6319     4518     5081 1
    6320     2568     2469 1
    6321     1084     6159 1
    6322      636     1673 1
    6323     7750     7984 1
    6324     9034    10076 1
    6325     2407     2081 1
    6326      893      182 1
    6327     8938     9895 1
    6328     1330      336 1
    6329     9366    10481 1
    6330     5528     6915 1
    6331     8423     8444 1
    6332     2562     1877 1
    6333     7354     7501 1
    6334     2421     3551 1
    6335     4327     5014 1
    6336     2450     7395 1
    6337     7701     8171 1
    6338      706     1411 1
    6339       31       25 1
    6340     4399     4902 1
    6341     5475     5909 1
    6342      520      265 1
    6343     7984     8166 1
    6344     2650     2491 1
    6345     1071      339 1
    6346      976     1461 1
    6347     4709     5240 1
    6348     7464     8329 1
    6349     7309     7500 1
    6350     6059     7026 1
    6351     3598     5098 1
    6352     2740     1807 1
    6353     3575     5282 1
    6354     7308     7756 1
    6355     1061     1065 1
    6356     3601     4203 1
    6357      934      362 1
    6358     4522     5214 1
    6359     5395     9375 1
    6360     5537     6537 1
    6361     4039     4816 1
    6362     3115     1832 1
    6363     4325     4591 1
    6364     1468     1528 1
    6365     1660      118 1
    6366     3852     5266 1
    6367     9077     9431 1
    6368     6590     6673 1
    6369     1360     1628 1
    6370     1239      215 1
    6371     6072     6774 1
    6372      782      187 1
    6373     1172     1577 1
    6374     8394     8476 1
    6375     2717     2922 1
    6376     3680     4221 1
    6377     7915     8590 1
    6378     3683     5322 1
    6379     7417     7958 1
    6380     5957     6456 1
    6381     4511     5084 1
    6382    10325    10396 1
    6383     9650    10472 1
    6384     4513     4926 1
    6385      449     1294 1
    6386     2339     8118 1
    6387     2705     2204 1
    6388      784     1394 1
    6389    10246    10330 1
    6390      510      192 1
    6391     2587     3392 1
    6392     5372     6231 1
    6393      824      587 1
    6394     6197     6783 1
    6395     2002     2129 1
    6396     5455     6525 1
    6397     2355     1932 1
    6398     7664     8694 1
    6399      982      572 1
    6400     9646     9680 1
    6401     5649     6603 1
    6402     3308     3554 1
    6403      632     1451 1
    6404     7244     8286 1
    6405     1218       73 1
    6406     7593     8444 1
    6407     4255     5196 1
    6408     9229    10517 1
    6409     4321     4420 1
    6410     7873     8665 1
    6411     8754     9605 1
    6412     1117     1242 1
    6413     3782     4478 1
    6414      714     1466 1
    6415     5647     6435 1
    6416     7994     8630 1
    6417     7441     8464 1
    6418     7293     8062 1
    6419     3587     4520 1
    6420     5685     5800 1
    6421     1018     1090 1
    6422     3003     2024 1
    6423     9142     9318 1
    6424     8173     8455 1
    6425     4765     5066 1
    6426     9109     9987 1
    6427     7589     7807 1
    6428     3898     5180 1
    6429     3072     3188 1
    6430     2633     3249 1
    6431     1140     1370 1
    6432     7300     7648 1
    6433      703     1361 1
    6434     4992     5266 1
    6435     2652     3404 1
    6436     1829     1974 1
    6437     6453     6655 1
    6438     4593     4840 1
    6439     2871     2052 1
    6440     6787     7059 1
    6441     4323     5171 1
    6442     2044     2264 1
    6443     2661     2089 1
    6444       62       94 1
    6445     7350     7777 1
    6446        8     1026 1
    6447      668     1483 1
    6448     5748     6949 1
    6449     1058     5592 1
    6450     2886     2125 1
    6451     9338     9835 1
    6452     7356     8388 1
    6453     4843     5020 1
    6454     3329     2133 1
    6455     1602     1643 1
    6456    10156    10405 1
    6457     1177       99 1
    6458     4895     4917 1
    6459     9403    10719 1
    6460     4686     4829 1
    6461      776      181 1
    6462     3010     3277 1
    6463     5893     6575 1
    6464     6125     6691 1
    6465     2703     2284 1
    6466     6026     6560 1
    6467     2461     2031 1
    6468      379     1747 1
    6469     8955     9932 1
    6470     9429    10232 1
    6471     2533     2029 1
    6472     9840     9935 1
    6473      820       70 1
    6474     9197    10341 1
    6475     3210     1898 1
    6476     6534     6958 1
    6477     9013     9635 1
    6478     7432     8395 1
    6479     2425     3235 1
    6480     6158     6505 1
    6481     8281     8704 1
    6482      614      161 1
    6483     8994     9028 1
    6484     2880     3121 1
    6485    10038    10276 1
    6486      625     1438 1
    6487     3175     3415 1
    6488     9245     9816 1
    6489     7856     8046 1
    6490     6260     6803 1
    6491     2389     7425 1
    6492     4515     4731 1
    6493     3667     5255 1
    6494     8181     8259 1
    6495     5403     5822 1
    6496     7629     7982 1
    6497     1086      206 1
    6498     2545      204 1
    6499     1654      241 1
    6500     1272      427 1
    6501     9846    10285 1
    6502     9864     9914 1
    6503     7148     7226 1
    6504     7847     7881 1
    6505     5553     5758 1
    6506     9785     9860 1
    6507     2919     1882 1
    6508     6117     6209 1
    6509     8976    10516 1
    6510      688     5913 1
    6511    10094    10610 1
    6512     2651     2170 1
    6513    10299    10441 1
    6514     8288     8562 1
    6515     5776     6462 1
    6516     8179     8518 1
    6517     3895     5208 1
    6518     7244     8272 1
    6519     2444     2049 1
    6520     9184     9998 1
    6521     7194     7585 1
    6522     3775     4960 1
    6523     9198     9316 1
    6524     9708     9720 1
    6525     7851     8680 1
    6526    10002    10006 1
    6527     9566    10381 1
    6528     2412     2105 1
    6529     2926     3155 1
    6530     9587    10304 1
    6531     1476     1661 1
    6532     9869    10414 1
    6533     2423     3354 1
    6534     1623      181 1
    6535      915     1702 1
    6536     3069     2251 1
    6537       28      351 1
    6538     9002     9764 1
    6539      951     1110 1
    6540      808     1635 1
    6541     6074     6893 1
    6542     9087     9980 1
    6543     8720     7783 1
    6544     4085     4108 1
    6545      702     1554 1
    6546     6542     6770 1
    6547     2741     1956 1
    6548     6072     6727 1
    6549     9982    10382 1
    6550     7217     7657 1
    6551     6546     7999 1
    6552     5675     6011 1
    6553     5481     6418 1
    6554     2368     1978 1
    6555     4056     4271 1
    6556     7380     7614 1
    6557     4477     4745 1
    6558     1937     1945 1
    6559     3811     4782 1
    6560     6488     6600 1
    6561     4083     4886 1
    6562     6896     7055 1
    6563     1482     1678 1
    6564     5595     6737 1
    6565     7505     7651 1
    6566      277      393 1
    6567     1956     2269 1
    6568     8928     7607 1
    6569      948      239 1
    6570     1240      168 1
    6571     3640     4492 1
    6572     7299     7506 1
    6573     8467     8712 1
    6574     7729     8646 1
    6575     9253    10220 1
    6576    10081    10669 1
    6577     7720     7787 1
    6578     9512     9824 1
    6579     2734     3003 1
    6580      730      343 1
    6581     7677     8659 1
    6582     8089     8192 1
    6583     1642     4818 1
    6584     6104     7108 1
    6585     1121     5075 1
    6586     6413     6609 1
    6587     8947     9634 1
    6588     7257     8346 1
    6589     8734     8668 1
    6590     6251     6662 1
    6591     4804     5352 1
    6592     7504     8420 1
    6593     7443     8563 1
    6594     6368     6742 1
    6595     8964     9136 1
    6596     7658     8338 1
    6597     6015     7072 1
    6598     9168     9766 1
    6599      609     1353 1
    6600      875      806 1
    6601     3685     4698 1
    6602      894     1103 1
    6603     5667     5754 1
    6604     1089     1519 1
    6605     1085     1135 1
    6606      546      227 1
    6607     2012      140 1
    6608     1079      269 1
    6609     2707     2442 1
    6610     7268     7335 1
    6611     7709     8253 1
    6612     8090     8114 1
    6613     6635     6918 1
    6614     1887     2084 1
    6615     4152     4264 1
    6616     3020     3235 1
    6617     9383     9469 1
    6618     5405     6692 1
    6619     4510     4534 1
    6620     9723    10027 1
    6621     5094     5220 1
    6622     2750     3351 1
    6623     7486     7653 1
    6624     9371     9868 1
    6625     3936     4638 1
    6626     7612     8432 1
    6627     3923     4643 1
    6628    10236    10617 1
    6629     5774     6952 1
    6630     2927     3451 1
    6631     2132     3526 1
    6632     9079     9640 1
    6633      811      278 1
    6634     9254     9312 1
    6635       53     1730 1
    6636     5384     6979 1
    6637     2719     3076 1
    6638     4156     4885 1
    6639     9705    10173 1
    6640     4996     5268 1
    6641     2755     3255 1
    6642     5738     7107 1
    6643     9348    10350 1
    6644     6023     6283 1
    6645     9310     9517 1
    6646     6489     7112 1
    6647     6402     6802 1
    6648     1033      389 1
    6649     2592     2663 1
    6650     6169     6308 1
    6651     8210     8607 1
    6652     3809     4229 1
    6653     9890    10107 1
    6654     5754     6864 1
    6655     5526     6048 1
    6656     3717     3924 1
    6657     9641    10407 1
    6658     9306     9587 1
    6659     5772     6353 1
    6660     3186     2251 1
    6661     6232     6426 1
    6662     4456     4540 1
    6663     8327     8555 1
    6664     4586     5194 1
    6665     7716     7727 1
    6666     2804     3321 1
    6667     3800     5223 1
    6668     7410     7803 1
    6669     7175     7880 1
    6670     5095     5215 1
    6671     3917     4284 1
    6672     8981     8984 1
    6673     9127    10671 1
    6674     3700     3887 1
    6675     9792     9813 1
    6676     5523     7040 1
    6677     9786    10406 1
    6678     9556    10498 1
    6679      943     1514 1
    6680     4080     4675 1
    6681     8977    10457 1
    6682     9769    10317 1
    6683     2526     3266 1
    6684     7204     8481 1
    6685      686     1172 1
    6686     8728     7999 1
    6687     6380     6570 1
    6688     2660     2710 1
    6689     4501     4920 1
    6690     6756     6833 1
    6691     9633    10587 1
    6692     2989     2004 1
    6693      792      401 1
    6694     6097     7118 1
    6695     9212     9965 1
    6696      624     1377 1
    6697     2388     2005 1
    6698     9660    10200 1
    6699     4718     5239 1
    6700     3041     1967 1
    6701     8225     8696 1
    6702      142     6053 1
    6703     9999    10223 1
    6704     9579    10059 1
    6705     4088     4603 1
    6706     2996     2148 1
    6707     9156     9742 1
    6708      415     1546 1
    6709     6154     6836 1
    6710     1053      210 1
    6711     9186    10578 1
    6712     7412     8493 1
    6713     7352     8018 1
    6714     8018     8490 1
    6715     8243     8484 1
    6716     1220     1770 1
    6717     7165     7985 1
    6718      594     1093 1
    6719     2833     3069 1
    6720     4274     5100 1
    6721      523      161 1
    6722     8859     7862 1
    6723     3817     4345 1
    6724      933     1069 1
    6725      347     1509 1
    6726     8823     7248 1
    6727     4288     4445 1
    6728     5026     5283 1
    6729      468     1316 1
    6730     7152     7518 1
    6731      496       61 1
    6732     3796    10023 1
    6733     3849     4640 1
    6734    10376    10436 1
    6735     4237     4862 1
    6736     1026     1452 1
    6737     1017     1682 1
    6738     7967     8524 1
    6739     6559     6702 1
    6740     5886     6687 1
    6741     9058    10691 1
    6742      289     1485 1
    6743     7143     7361 1
    6744     7185     7951 1
    6745     1162      172 1
    6746     3012     2000 1
    6747     9405    10442 1
    6748     8859     8129 1
    6749    10262    10644 1
    6750     9478     9990 1
    6751     7170     7491 1
    6752       12      470 1
    6753    10302    10569 1
    6754     1353     1393 1
    6755      389     1586 1
    6756     4249     5074 1
    6757     4622     5237 1
    6758     1594       63 1
    6759     5981     6207 1
    6760     7301     7757 1
    6761     4300     4850 1
    6762     5507     6278 1
    6763     5984     7119 1
    6764     7229     7536 1
    6765     6460     7690 1
    6766      770     1687 1
    6767     7420     7949 1
    6768      495     1204 1
    6769     7320     8690 1
    6770     2522     3317 1
    6771     2054     3447 1
    6772     1895     3532 1
    6773     9418    10411 1
    6774     3875     4846 1
    6775     5443     5787 1
    6776     7422     7471 1
    6777     3732     3936 1
    6778     3778     4662 1
    6779     7469     7825 1
    6780     2774     2888 1
    6781     8942     9110 1
    6782      471     1695 1
    6783     9019     9062 1
    6784     6517     6613 1
    6785     7752     8502 1
    6786     7775     7820 1
    6787     7194     8024 1
    6788     4150     5250 1
    6789     8920     8370 1
    6790     5490     5792 1
    6791      867      530 1
    6792     9048    10260 1
    6793     3868     5313 1
    6794     9743     9979 1
    6795     2776     2397 1
    6796     9192     9397 1
    6797    10146    10205 1
    6798     4041     5039 1
    6799     5916     6742 1
    6800    10456    10487 1
    6801     9115    10564 1
    6802     2900     2007 1
    6803     6183     6740 1
    6804     2330     2092 1
    6805     7641     8672 1
    6806     9886    10456 1
    6807      319      380 1
    6808     5626     6171 1
    6809     2528     3054 1
    6810     8319     8434 1
    6811     2137     3496 1
    6812     3267     3460 1
    6813      808     1102 1
    6814     9958    10665 1
    6815     9109    10494 1
    6816     8934    10317 1
    6817     1063     1468 1
    6818      527      602 1
    6819     1739     1689 1
    6820     2672     2426 1
    6821     4290     5197 1
    6822     1153     1249 1
    6823     5953     6307 1
    6824     3953     5285 1
    6825     9116     9836 1
    6826     9904    10698 1
    6827     2124     3351 1
    6828     5429     7082 1
    6829     5518     6657 1
    6830     5949     6188 1
    6831     4737     5164 1
    6832     4418     4740 1
    6833     9248    10469 1
    6834     5742     5767 1
    6835     6116     6654 1
    6836      770      589 1
    6837     7436     8417 1
    6838      376      174 1
    6839     2763     3286 1
    6840     5978     6055 1
    6841     8936    10499 1
    6842     2876     2079 1
    6843     6493     6809 1
    6844     9631    10471 1
    6845     7223     7837 1
    6846     8340     8349 1
    6847     3592     3985 1
    6848     5710     5740 1
    6849     5593     6445 1
    6850     6275     6452 1
    6851      443     1354 1
    6852     9388    10466 1
    6853     5084     5115 1
    6854      924       78 1
    6855     6267     6707 1
    6856     4021     4234 1
    6857     6960     7137 1
    6858     3277     1876 1
    6859     1213     1442 1
    6860     1426     1532 1
    6861      472     1176 1
    6862     1061      123 1
    6863     7542     8157 1
    6864     1471     1568 1
    6865     4762     4907 1
    6866      578     1100 1
    6867     4285     5280 1
    6868     3785     5013 1
    6869     7917     8258 1
    6870     5927     6589 1
    6871     4630     5152 1
    6872    10129    10613 1
    6873     2676     7759 1
    6874     2488     1086 1
    6875     7230     8572 1
    6876     3404     3425 1
    6877      843      619 1
    6878     6512     6753 1
    6879     6306     7118 1
    6880     9576     9880 1
    6881      499     1522 1
    6882     1993     3449 1
    6883     3570     4172 1
    6884     2975     3086 1
    6885     2678     2184 1
    6886     5972     6717 1
    6887     8357     8457 1
    6888     9882    10263 1
    6889     4753     4815 1
    6890     5015     5256 1
    6891     9028    10435 1
    6892     8941    10301 1
    6893     8975     9657 1
    6894     9228    10128 1
    6895     6625     6665 1
    6896     9451    10574 1
    6897     2942     2971 1
    6898     9675    10252 1
    6899     9811    10006 1
    6900     9977     9984 1
    6901     3201     1835 1
    6902     6055     6468 1
    6903    10398    10654 1
    6904       23      503 1
    6905     7202     7546 1
    6906     8836     8076 1
    6907     2644     2225 1
    6908     5613     6139 1
    6909     1987     3432 1
    6910     1737     4224 1
    6911     6650     6828 1
    6912    10690    10696 1
    6913     9336     9770 1
    6914     2351     3162 1
    6915     2771     1827 1
    6916     2500     3172 1
    6917     3027     1794 1
    6918     4417     4438 1
    6919     1115      228 1
    6920     6047     6224 1
    6921      619     1475 1
    6922     7398     7923 1
    6923     8967     8995 1
    6924    10163    10711 1
    6925     8883     9783 1
    6926     9406     9642 1
    6927     5480     6942 1
    6928     7621     8552 1
    6929     5448     6142 1
    6930     3615     4984 1
    6931      609     1554 1
    6932     2361     2427 1
    6933     7877     8432 1
    6934     6032     6209 1
    6935     3296     3430 1
    6936     9269     9679 1
    6937     4484     4836 1
    6938     5900     5927 1
    6939     1792     1956 1
    6940     2457     4257 1
    6941     1280     6678 1
    6942     7688     7965 1
    6943     4398     5245 1
    6944     6068     8160 1
    6945      445      119 1
    6946     5490     6685 1
    6947     5649     6939 1
    6948     3133     2471 1
    6949     7685     8028 1
    6950     2578     2262 1
    6951     6019     7019 1
    6952     2753     2191 1
    6953     3116     1832 1
    6954     3094     2095 1
    6955     9602     9731 1
    6956     3300     3353 1
    6957     5955     6092 1
    6958     7912     8531 1
    6959     1337      416 1
    6960     4059     4130 1
    6961     2911     2065 1
    6962     2628     1736 1
    6963     8130     8249 1
    6964     2591     2366 1
    6965     3041     1846 1
    6966     6411     6678 1
    6967      280      371 1
    6968     4647     5207 1
    6969     7789     8510 1
    6970     7226     7686 1
    6971     7504     8284 1
    6972     3855     5157 1
    6973     2898     3441 1
    6974     5580     5968 1
    6975    10569    10646 1
    6976      827      386 1
    6977     6788     6813 1
    6978     9744    10551 1
    6979     8853     8321 1
    6980     2800     3185 1
    6981     6088     6667 1
    6982     7694     8171 1
    6983     8748     7537 1
    6984     1649      207 1
    6985     2622     2998 1
    6986     6164     7085 1
    6987     1982     2108 1
    6988     8409    10147 1
    6989     1446      348 1
    6990     4899     5102 1
    6991    10268    10290 1
    6992      932      820 1
    6993     9974    10696 1
    6994     5684     6531 1
    6995     8832     7898 1
    6996     4180     5126 1
    6997     9574    10390 1
    6998      717     1387 1
    6999      655     1674 1
    7000     8141     8555 1
    7001     8824     8192 1
    7002     8923     7844 1
    7003     7963     8531 1
    7004     1223      365 1
    7005     3264     2246 1
    7006     6445     6977 1
    7007     7158     7210 1
    7008     3616     4067 1
    7009     1023      174 1
    7010     5644     6847 1
    7011     7385     8075 1
    7012      642      149 1
    7013     6559     7031 1
    7014     5911     6770 1
    7015     5472     7022 1
    7016     6195     6697 1
    7017     9222    10505 1
    7018     3998     5283 1
    7019     1194      393 1
    7020      744     1268 1
    7021     4551     5305 1
    7022     8845     8572 1
    7023     3109     1980 1
    7024     4298     4677 1
    7025     8819     8300 1
    7026     9232    10287 1
    7027     9513     9907 1
    7028     7698     8043 1
    7029     1945     3388 1
    7030     7486     8357 1
    7031     3655     5090 1
    7032     9373    10154 1
    7033      715      358 1
    7034     9337    10005 1
    7035     3118     2124 1
    7036      721     1228 1
    7037     5444     5721 1
    7038     2336     3376 1
    7039     5353     6614 1
    7040      553     6053 1
    7041     5413     5617 1
    7042      819     1662 1
    7043     9261     9571 1
    7044      327     1640 1
    7045     7972     8637 1
    7046     5358     7007 1
    7047     2550     3334 1
    7048     9510     9823 1
    7049     9696    10601 1
    7050       62      179 1
    7051     9183    10133 1
    7052     5370     5390 1
    7053     9062    10051 1
    7054     3051     1977 1
    7055     3184     2041 1
    7056    10375    10480 1
    7057     8945     9155 1
    7058     3285     2038 1
    7059     2590     2732 1
    7060     2813     2075 1
    7061      780      597 1
    7062     7668     7871 1
    7063     5064     5253 1
    7064     1731      107 1
    7065     2541     2613 1
    7066     2370     3280 1
    7067     6005     6812 1
    7068     3254     3527 1
    7069     9175     9410 1
    7070     3604     4628 1
    7071     9978    10279 1
    7072     1346     1589 1
    7073     3731     4249 1
    7074     7854     8249 1
    7075     2427     3423 1
    7076      635     1238 1
    7077     2707     2360 1
    7078     2801     3097 1
    7079     6519     6839 1
    7080     3078     3104 1
    7081     3094     1806 1
    7082     4368     4604 1
    7083     2809     3489 1
    7084      844     1392 1
    7085      943      591 1
    7086     1361     5165 1
    7087     7532     7603 1
    7088     3804     4785 1
    7089     3686     4623 1
    7090     8884     6956 1
    7091     9380    10223 1
    7092     5789     6873 1
    7093     3583     4557 1
    7094     3586     4968 1
    7095     7413     8234 1
    7096     6250     6700 1
    7097     1901     2281 1
    7098      362     1523 1
    7099      997      490 1
    7100     7595     7764 1
    7101     3844     5300 1
    7102     4174     4922 1
    7103     6378     6763 1
    7104     1336     1534 1
    7105     5879     6681 1
    7106     9726    10336 1
    7107     6109     6308 1
    7108     4024     4464 1
    7109     8935     9526 1
    7110     2550     3086 1
    7111     8295     8626 1
    7112     7844     8281 1
    7113     5639     6859 1
    7114     3778     4091 1
    7115     2571     2475 1
    7116     4550     4887 1
    7117     7577     8084 1
    7118     7529     8287 1
    7119     9198     9752 1
    7120     8095     8610 1
    7121     5527     6385 1
    7122     2574     2680 1
    7123     1110     1362 1
    7124     4691     5271 1
    7125     4253     4870 1
    7126     5857     6885 1
    7127     9390    10267 1
    7128     6381     6453 1
    7129     2438     3439 1
    7130     8936     9994 1
    7131      410     1518 1
    7132     8020     8657 1
    7133     1286     1466 1
    7134     5824     6227 1
    7135     2898     7211 1
    7136    10424    10522 1
    7137     4525     4776 1
    7138     8725     7186 1
    7139     6028     9821 1
    7140       36     1025 1
    7141     2905     3305 1
    7142     9332     9949 1
    7143     4678     4918 1
    7144     1209      381 1
    7145     7213     8512 1
    7146     1272     1538 1
    7147     7638     8322 1
    7148     6274     6371 1
    7149     9828    10570 1
    7150     3053     3271 1
    7151     9144     9575 1
    7152     7965     8075 1
    7153     9377    10667 1
    7154     2823     3223 1
    7155     3651     5284 1
    7156     8191     8665 1
    7157     5474     5858 1
    7158     3810     3829 1
    7159     9291     9565 1
    7160     2730     2754 1
    7161     6315     6655 1
    7162     3906     5016 1
    7163     4606     5126 1
    7164     8774     7742 1
    7165      816     1712 1
    7166      647     1281 1
    7167     4205     5139 1
    7168     1173      184 1
    7169     3068     2223 1
    7170     3022     2325 1
    7171     5965     6381 1
    7172     4487     5007 1
    7173     3683     3777 1
    7174    10130    10628 1
    7175     5641     6488 1
    7176     3296     3435 1
    7177     8994    10249 1
    7178     9750    10365 1
    7179     8819     8026 1
    7180     1160     1549 1
    7181     1027      231 1
    7182     8878     8287 1
    7183     4610     5021 1
    7184     9894    10232 1
    7185     5428     5874 1
    7186     1209     1375 1
    7187     5613     6864 1
    7188     9014     9751 1
    7189     3410     3488 1
    7190     7457     7699 1
    7191     3579     5093 1
    7192     3952     5177 1
    7193     7278     8438 1
    7194     8011     8231 1
    7195     6273     7094 1
    7196     3062     3235 1
    7197     9430    10209 1
    7198     1310      150 1
    7199     3015     2463 1
    7200     2793     2008 1
    7201     3725     4905 1
    7202      742     1133 1
    7203      754     1683 1
    7204     5892     5906 1
    7205     4702     5218 1
    7206      851      264 1
    7207     2625     2482 1
    7208     1533     1693 1
    7209     3748     5141 1
    7210     9131    10206 1
    7211     5507     6400 1
    7212     3880     4912 1
    7213     5376     6354 1
    7214     4209     5209 1
    7215     5667     6715 1
    7216     2713     3323 1
    7217     4387     5231 1
    7218     5112     5269 1
    7219     5550     6629 1
    7220     8335     8366 1
    7221     9981    10498 1
    7222     9411     9746 1
    7223      763      297 1
    7224     7337     8493 1
    7225      898     1130 1
    7226     6219     6521 1
    7227     8192     8459 1
    7228      946      137 1
    7229     5710     6750 1
    7230     5570     6755 1
    7231    10436    10624 1
    7232     4007     4231 1
    7233     2942     3017 1
    7234      643     1641 1
    7235    10389    10627 1
    7236     3029     3165 1
    7237     5378     6310 1
    7238     1044     1675 1
    7239     9790    10467 1
    7240     2299     3508 1
    7241      653     1766 1
    7242     3773     3889 1
    7243     4518     9117 1
    7244     7389     8203 1
    7245     3995     4504 1
    7246     2480     3317 1
    7247     1555     1665 1
    7248      776     1695 1
    7249      768     1184 1
    7250     9229    10619 1
    7251     3185     1796 1
    7252     3199     1951 1
    7253        4      734 1
    7254     9133     9862 1
    7255     5494     8109 1
    7256      451      621 1
    7257     3821     4967 1
    7258     2759     3059 1
    7259      956     1505 1
    7260     7405     7707 1
    7261     6417     6829 1
    7262     4766     5327 1
    7263     2622     3288 1
    7264     7365     8353 1
    7265     2535     2671 1
    7266     7144     7883 1
    7267     9234    10142 1
    7268     3050     3381 1
    7269     9940    10297 1
    7270     5541     6683 1
    7271     1055      127 1
    7272     2970     1892 1
    7273     8108     8974 1
    7274     5974     6397 1
    7275     4496     5256 1
    7276     4550     4628 1
    7277     4324     4393 1
    7278     2913     2123 1
    7279     9817    10087 1
    7280     8764     8230 1
    7281     9150     9447 1
    7282     3607     5319 1
    7283     1817     3438 1
    7284     5697     6281 1
    7285     9322     9771 1
    7286     9389     9869 1
    7287    10167    10251 1
    7288     4730     4790 1
    7289     5580     6806 1
    7290     2553     2970 1
    7291     1441     1466 1
    7292     7486     8116 1
    7293     5997     6255 1
    7294     7524     8359 1
    7295     1078       84 1
    7296      645     1362 1
    7297     6730     6733 1
    7298     8540     8647 1
    7299     4259     4410 1
    7300     6108     6843 1
    7301     7157     7836 1
    7302     9474    10490 1
    7303     9705    10008 1
    7304     9928    10046 1
    7305     9029    10462 1
    7306     6121     6964 1
    7307     5802     6412 1
    7308     1885     3497 1
    7309     3827     5294 1
    7310      929     1457 1
    7311     7710     8158 1
    7312     1047      652 1
    7313     9849    10062 1
    7314     5392     6662 1
    7315     7282     8186 1
    7316     9329    10656 1
    7317     4585     4658 1
    7318     4366     5292 1
    7319     5369     6919 1
    7320     4120     9915 1
    7321     2704     2847 1
    7322     9859    10005 1
    7323     4882     5138 1
    7324     3984     4117 1
    7325     5513     5722 1
    7326     4390     5121 1
    7327     9114    10481 1
    7328     4864     5077 1
    7329     6483     6610 1
    7330     2413     1966 1
    7331     6067     7134 1
    7332     3968     4791 1
    7333     9650    10582 1
    7334     2615     2168 1
    7335     7566     8484 1
    7336     8962    10686 1
    7337     5601     6920 1
    7338    10101    10553 1
    7339     9186     9205 1
    7340     8131     8468 1
    7341     5977     6369 1
    7342    10193    10208 1
    7343     2953     3164 1
    7344     8864     8074 1
    7345     3665     3862 1
    7346     5970     6200 1
    7347      656      137 1
    7348     3716     3723 1
    7349    10175    10392 1
    7350     9167     9931 1
    7351     3739     4045 1
    7352     8903     8188 1
    7353      464      538 1
    7354      673      426 1
    7355     6261     6822 1
    7356     9165    10654 1
    7357     3588     3909 1
    7358      336     1736 1
    7359     2206     2213 1
    7360     2377     3197 1
    7361     1811     2272 1
    7362      601      238 1
    7363     6117     6279 1
    7364      690     1529 1
    7365     9410    10017 1
    7366     2623     2972 1
    7367      886     1336 1
    7368     3673     4595 1
    7369     7610     7843 1
    7370     5388     5416 1
    7371     1812     2206 1
    7372     8145     8703 1
    7373     3607     4550 1
    7374     2604     3168 1
    7375     8843     7921 1
    7376     5889     6677 1
    7377     4705     5299 1
    7378      992     1013 1
    7379     1973     2291 1
    7380     4092     4435 1
    7381      807      195 1
    7382     1379      318 1
    7383     2683     2339 1
    7384     1837     2195 1
    7385      651     1091 1
    7386     9644    10495 1
    7387      845      399 1
    7388     8079     8439 1
    7389     3299     1825 1
    7390     2980     2175 1
    7391     9166     9969 1
    7392     7550     8352 1
    7393     9357    10014 1
    7394     6000     6528 1
    7395     3168     3239 1
    7396     2750     3287 1
    7397     3621     4057 1
    7398     7751     7753 1
    7399      766     1764 1
    7400     9080    10031 1
    7401     7706     8608 1
    7402     3920     4245 1
    7403     3697     4856 1
    7404     7321     7625 1
    7405     9573     9618 1
    7406     2577     2308 1
    7407     3236     2200 1
    7408     7692     8555 1
    7409     5852     9328 1
    7410     2677     1912 1
    7411     5627     6707 1
    7412       30     1748 1
    7413    10431    10432 1
    7414     2116     3441 1
    7415     2406     3233 1
    7416     8776     8853 1
    7417     2201     3397 1
    7418     3277     3383 1
    7419     9185     9937 1
    7420      972     5917 1
    7421     1604     5514 1
    7422     3924     4791 1
    7423     3088     3528 1
    7424     5354     6105 1
    7425     1856     2193 1
    7426     9015    10200 1
    7427      836     1019 1
    7428      942     1254 1
    7429     9824    10461 1
    7430     7943     8087 1
    7431     8951     9601 1
    7432     4214     4984 1
    7433     9383    10675 1
    7434     6403     7115 1
    7435     7904     8584 1
    7436     7185     7858 1
    7437     1755     1585 1
    7438     5381     5426 1
    7439     7446     8353 1
    7440      834     1479 1
    7441     5498     6353 1
    7442     6632     6942 1
    7443      751     1139 1
    7444     9626     9971 1
    7445     2435     2275 1
    7446     9103    10657 1
    7447     3571     3935 1
    7448     4382     5193 1
    7449     6520     6595 1
    7450    10085    10611 1
    7451     1701     1543 1
    7452     9527    10621 1
    7453     3748     4723 1
    7454     6506     7033 1
    7455     7602     8240 1
    7456     3833     4066 1
    7457     9679     9917 1
    7458     1380      149 1
    7459      849     1612 1
    7460     5844     6420 1
    7461     9051     9458 1
    7462     9041    10259 1
    7463     9265     9779 1
    7464     2594     3417 1
    7465     7234     8418 1
    7466     2625     1803 1
    7467     3758     4973 1
    7468     2977     2986 1
    7469     3597     4944 1
    7470     8283     8385 1
    7471     8850     7432 1
    7472     2404     3540 1
    7473     7372     8624 1
    7474    10116    10264 1
    7475     7646     8407 1
    7476     7434     8293 1
    7477     3845     5133 1
    7478     8200     8689 1
    7479     9386    10044 1
    7480     2950     2007 1
    7481     9686    10370 1
    7482     2528     2977 1
    7483     1027     1304 1
    7484     1360      389 1
    7485    10460    10525 1
    7486      978      594 1
    7487     5768     6088 1
    7488     9178     9755 1
    7489     2525     2424 1
    7490     7332     8154 1
    7491       15      600 1
    7492     4399     4468 1
    7493     9949    10352 1
    7494     2450     8834 1
    7495     3632     4388 1
    7496     9095     9461 1
    7497     8851     7813 1
    7498     5459     7036 1
    7499     6505     7031 1
    7500     6460     7751 1
    7501     7314     7519 1
    7502     9837    10046 1
    7503     3048     2407 1
    7504     7895     8128 1
    7505     5745     6928 1
    7506     9185     9692 1
    7507     3622     4876 1
    7508      505     1110 1
    7509     9365     9874 1
    7510     5399     5485 1
    7511     1473     1525 1
    7512     6122     6820 1
    7513     5547     6808 1
    7514     9987    10250 1
    7515     3615     4525 1
    7516     8903     8569 1
    7517     2071     3485 1
    7518     5556     5994 1
    7519     1866     2001 1
    7520     8884     8132 1
    7521     8138     8149 1
    7522     1187     1673 1
    7523     3734     4664 1
    7524     6324     7184 1
    7525     9231     9971 1
    7526     4624     4979 1
    7527     6435    10192 1
    7528     2944     3394 1
    7529     7570     7817 1
    7530     2112     3555 1
    7531     4402     5074 1
    7532     6165     6323 1
    7533     3939     5009 1
    7534     8729     7266 1
    7535     2313     3376 1
    7536     9188     9189 1
    7537     4181     5141 1
    7538     6714     7138 1
    7539     6591     6961 1
    7540      888     1730 1
    7541     6484    10447 1
    7542     3874     4837 1
    7543     3829     4227 1
    7544     8810     7267 1
    7545     2626     3241 1
    7546     3590     4960 1
    7547     3746     4888 1
    7548     9457    10665 1
    7549     2687     3131 1
    7550     3797     5204 1
    7551     5432     6368 1
    7552     4350     4468 1
    7553     7253     7696 1
    7554     6331     6832 1
    7555     8851     8194 1
    7556     6571     6761 1
    7557     3290     3512 1
    7558     1791     2157 1
    7559      581      245 1
    7560     4220     5335 1
    7561      703      121 1
    7562     3622     3654 1
    7563     7509     7944 1
    7564     5766     9284 1
    7565     6179     6824 1
    7566     5442     6456 1
    7567     9048    10650 1
    7568     4671     5014 1
    7569     2832     1935 1
    7570     8855     8339 1
    7571     8895     7882 1
    7572     5588     6313 1
    7573     3584     3761 1
    7574    10119    10188 1
    7575     5925     6782 1
    7576     5998     6602 1
    7577     9279     9673 1
    7578     8733     8219 1
    7579     4583     5295 1
    7580     5456     5569 1
    7581     2711     3296 1
    7582     3566     4134 1
    7583     4221     5226 1
    7584     9233     9706 1
    7585     1808     2131 1
    7586     9529     9640 1
    7587     7236     8643 1
    7588     3260     2011 1
    7589     5590     6964 1
    7590     8270     8500 1
    7591     9308    10419 1
    7592     7179     8524 1
    7593     9347     9783 1
    7594     1100     1328 1
    7595     7883     8637 1
    7596     4972     5095 1
    7597     2621     3205 1
    7598     9075     9740 1
    7599     9438     9658 1
    7600     7464     7619 1
    7601     2958     1845 1
    7602     2318     3293 1
    7603     2924     3512 1
    7604     7762     8624 1
    7605     9480     9507 1
    7606     5376     6201 1
    7607     4222     4340 1
    7608     3913     4189 1
    7609     7779     8387 1
    7610     2989     3050 1
    7611     4064     5348 1
    7612     9873    10091 1
    7613     7815     8013 1
    7614     2346     3509 1
    7615     5497     5851 1
    7616     2920     3022 1
    7617     3898     4077 1
    7618     9442    10664 1
    7619     9299    10212 1
    7620     2583     3334 1
    7621      879     6985 1
    7622     9845    10466 1
    7623     6182     6878 1
    7624     2822     3341 1
    7625     8762     8559 1
    7626     9469     9810 1
    7627     2972     2072 1
    7628      780      133 1
    7629     8925     7154 1
    7630      624      355 1
    7631     7439     8341 1
    7632     5978     6919 1
    7633     4179     4974 1
    7634      766     1299 1
    7635     9700    10400 1
    7636      699     1412 1
    7637     2622     3264 1
    7638     1536      122 1
    7639     3764     5227 1
    7640     4802     5065 1
    7641     5060     5132 1
    7642      443      475 1
    7643     7777     8091 1
    7644     5697     6919 1
    7645      869      273 1
    7646     1720     5016 1
    7647     9159     9301 1
    7648     3000     2031 1
    7649     6781     8160 1
    7650     9001     9867 1
    7651     6140     6362 1
    7652      683      173 1
    7653     3046     2154 1
    7654     9381    10470 1
    7655      850     1173 1
    7656      160     6966 1
    7657     8057     8259 1
    7658     9039    10290 1
    7659      761      485 1
    7660     6636     6898 1
    7661     2458     2208 1
    7662     5767     6871 1
    7663     1395      194 1
    7664     2539     3531 1
    7665     3970     4044 1
    7666     6437     7084 1
    7667     5857     5950 1
    7668     5377     6846 1
    7669     3821     5250 1
    7670     8273     8443 1
    7671     2992     3295 1
    7672     7508     8360 1
    7673     2393     3474 1
    7674     1261     1301 1
    7675     1055      249 1
    7676     4592     5275 1
    7677      666     7047 1
    7678     4068     9770 1
    7679     9849    10641 1
    7680     3307     2143 1
    7681     9123    10628 1
    7682     8726     7434 1
    7683     5882     6218 1
    7684     5957     6342 1
    7685     3774     4071 1
    7686     9393    10124 1
    7687     7071     7130 1
    7688     3890     5346 1
    7689     8204     8559 1
    7690     9156    10528 1
    7691     1436     1507 1
    7692     2697     3047 1
    7693     6138     6696 1
    7694     2584     2595 1
    7695     7437     8494 1
    7696     5484     6183 1
    7697     2471     3409 1
    7698     1416     1685 1
    7699     5382     6229 1
    7700     9552     9977 1
    7701     9634     9728 1
    7702     6242     7032 1
    7703     3066     3422 1
    7704     5495     6163 1
    7705     5793     6914 1
    7706       53      456 1
    7707     8979     9925 1
    7708     9900    10151 1
    7709     2600     2104 1
    7710     9486    10709 1
    7711     6303     6685 1
    7712     8492     8533 1
    7713     1572      189 1
    7714     7609     8650 1
    7715     6159     6366 1
    7716     4657     5089 1
    7717     7685    10698 1
    7718     2631     2711 1
    7719     1666      131 1
    7720     9283    10451 1
    7721     1032     1758 1
    7722     4310     4996 1
    7723     3976     5115 1
    7724     4363     4908 1
    7725     2900     2971 1
    7726     6181     6291 1
    7727      674     1426 1
    7728       24      202 1
    7729     7660     8399 1
    7730     3023     3561 1
    7731      800     1520 1
    7732      861      365 1
    7733     2226     3518 1
    7734     7836     7990 1
    7735     5607     5789 1
    7736      880      457 1
    7737     4272     4979 1
    7738     7156     7599 1
    7739     3705     4585 1
    7740     3259     3440 1
    7741     8995    10297 1
    7742     6088     6241 1
    7743     9132    10543 1
    7744     3949     5155 1
    7745      852     1727 1
    7746     9517    10505 1
    7747     7081    10390 1
    7748     8817     7804 1
    7749     7549     7976 1
    7750     2557     2895 1
    7751     7904     8593 1
    7752     1317     1562 1
    7753     3740     4401 1
    7754      707      814 1
    7755     5846     6725 1
    7756     5849     6655 1
    7757     3692     3904 1
    7758     2036     2240 1
    7759     9558    10042 1
    7760     7392     7435 1
    7761     1343      273 1
    7762     2525     2386 1
    7763      899       99 1
    7764     3329     2213 1
    7765      357     1677 1
    7766     7147     7580 1
    7767     1046     1775 1
    7768     7827     8471 1
    7769     9519     9586 1
    7770     9407    10258 1
    7771     4650     5130 1
    7772     8862     8605 1
    7773     8776     8508 1
    7774     8860     7667 1
    7775     3869     3955 1
    7776     9206    10057 1
    7777     9565     9845 1
    7778     7153     7316 1
    7779     3889     4252 1
    7780     9466     9543 1
    7781     9034     9239 1
    7782     2693     2960 1
    7783     8125     8332 1
    7784     3755     4912 1
    7785     5622     6822 1
    7786     7768     8586 1
    7787     3063     2218 1
    7788     9543     9960 1
    7789      627      353 1
    7790     3914     4057 1
    7791     5475     5557 1
    7792     9200     9421 1
    7793     8794     8675 1
    7794      536     1509 1
    7795     2981     3451 1
    7796     6524     6911 1
    7797     8425     8599 1
    7798     9374    10218 1
    7799      919      577 1
    7800     5622     5974 1
    7801     3967     4314 1
    7802     2764     3246 1
    7803     3193     2193 1
    7804     1471      290 1
    7805     4016     4716 1
    7806      723     1628 1
    7807      594     1412 1
    7808     3177     1996 1
    7809     1265     1368 1
    7810     9019     9744 1
    7811      910     1007 1
    7812     3663     5284 1
    7813      892      789 1
    7814     7456     8419 1
    7815     4850     4916 1
    7816     3205     3350 1
    7817     1682       88 1
    7818     4631     5038 1
    7819     1233     1741 1
    7820     8719     7440 1
    7821      904      668 1
    7822     3980     5184 1
    7823     7813     8080 1
    7824      614     1406 1
    7825     8414     8516 1
    7826     4582     4968 1
    7827     3727     4191 1
    7828     3827     5030 1
    7829    10271    10556 1
    7830     4044     4523 1
    7831     7462     8493 1
    7832     6263     6709 1
    7833     3616     4598 1
    7834     1697     1631 1
    7835     3851     5145 1
    7836     6070     6103 1
    7837     8987     9900 1
    7838     5842     9741 1
    7839     2373     2120 1
    7840     9729     9767 1
    7841     9901    10222 1
    7842     8386     8931 1
    7843     8077     8285 1
    7844      926      414 1
    7845     6098     6451 1
    7846     8873     7408 1
    7847     2372     2227 1
    7848     3642     4260 1
    7849     7549     8645 1
    7850      498     1372 1
    7851     3623     4175 1
    7852      946     1217 1
    7853     5531     6410 1
    7854       47      983 1
    7855     4422     4746 1
    7856     3023     1478 1
    7857     3275     2021 1
    7858     1914     2031 1
    7859     1820     2016 1
    7860     8795     8134 1
    7861       40      599 1
    7862      847     1525 1
    7863     2774     3429 1
    7864     1425      117 1
    7865     7247     8497 1
    7866     3789     5283 1
    7867      414     1589 1
    7868      667      459 1
    7869     5720     6499 1
    7870      626      169 1
    7871     5364     5829 1
    7872     7163     7266 1
    7873     9161     9546 1
    7874     7451     8500 1
    7875     9232    10648 1
    7876     7566     8065 1
    7877     8818     8344 1
    7878     2651     1814 1
    7879     9697     9795 1
    7880     4307     4516 1
    7881     7356     7651 1
    7882    10163    10258 1
    7883     9750     9863 1
    7884     3621     3822 1
    7885     8761     7979 1
    7886     3780     4793 1
    7887      863     1083 1
    7888      854      524 1
    7889       24     1073 1
    7890     5431     7116 1
    7891    10135    10468 1
    7892     3389     4230 1
    7893     8622     8675 1
    7894     6004     6518 1
    7895     2983     1897 1
    7896     7800     8006 1
    7897      539     1237 1
    7898     3136     3557 1
    7899     9217     9267 1
    7900     3677     4326 1
    7901     8127     8464 1
    7902      711     1101 1
    7903     9539     9722 1
    7904     6116     6503 1
    7905     4762     5238 1
    7906    10212    10497 1
    7907      603     1591 1
    7908     9066     9832 1
    7909     7386     8619 1
    7910     9451    10060 1
    7911     2919     1853 1
    7912     9047     9640 1
    7913     8182     8487 1
    7914     5384     5517 1
    7915     9492    10252 1
    7916     2579     2789 1
    7917     5652     6709 1
    7918     5765     6192 1
    7919     9381    10325 1
    7920     5437     5895 1
    7921       32      709 1
    7922      860      813 1
    7923     3381     3556 1
    7924     9523     9736 1
    7925     4839     5105 1
    7926     7828     8175 1
    7927     5948     7036 1
    7928     8960    10372 1
    7929    10287    10552 1
    7930     2213     3502 1
    7931     9002     9793 1
    7932     4235     4472 1
    7933       46       70 1
    7934     7225     8629 1
    7935     4470     5094 1
    7936     3580     3790 1
    7937     5681     6026 1
    7938     8758     7947 1
    7939     5534     6984 1
    7940     3908     4671 1
    7941      809      402 1
    7942     3065     2097 1
    7943     9858    10642 1
    7944     3657     5072 1
    7945     1054     1498 1
    7946     3624     4924 1
    7947     1425     1451 1
    7948     9770    10577 1
    7949     6593     7058 1
    7950     8910     8088 1
    7951     3636     3972 1
    7952      392       76 1
    7953     6077     6464 1
    7954     3294     2262 1
    7955     6551     6870 1
    7956     3844     4692 1
    7957     5916     7095 1
    7958     5564     6491 1
    7959     7415     7941 1
    7960     2814     2270 1
    7961     9618    10022 1
    7962     9222    10331 1
    7963     9768    10430 1
    7964      518     1107 1
    7965     7659     8412 1
    7966     5463     6218 1
    7967      634     1463 1
    7968     6094     6234 1
    7969     5448     6883 1
    7970     3831     4912 1
    7971     2000     3371 1
    7972    10149    10340 1
    7973     6661     6870 1
    7974     5379     6670 1
    7975     4309     4700 1
    7976     1416       79 1
    7977     6306     7109 1
    7978     1126     1752 1
    7979     3720     4708 1
    7980     6170     6672 1
    7981     2831     3555 1
    7982     3628     3750 1
    7983      966      757 1
    7984     8903     7520 1
    7985     8026     9605 1
    7986        6       84 1
    7987     9424    10223 1
    7988     5461     7048 1
    7989      542     1245 1
    7990     9663     9772 1
    7991     2806     2893 1
    7992      874     1144 1
    7993      869      991 1
    7994     6171     6343 1
    7995     6830     6891 1
    7996     3293     3369 1
    7997     9145     9191 1
    7998    10593    10662 1
    7999     6521     7067 1
    8000     6371     6640 1
    8001     9571    10525 1
    8002     1007     1410 1
    8003     8152     8526 1
    8004    10067    10177 1
    8005     9820    10585 1
    8006     5593     6312 1
    8007     2785     2055 1
    8008     5360     5644 1
    8009     3734     4050 1
    8010     2975     2297 1
    8011     7996     8246 1
    8012     5623     6463 1
    8013     5743     5857 1
    8014     7474     7579 1
    8015     5373     5585 1
    8016     9189    10071 1
    8017     7633     8440 1
    8018    10132    10648 1
    8019     9309     9410 1
    8020     8274     8385 1
    8021     8403     8523 1
    8022     9154    10714 1
    8023     9140    10598 1
    8024     7279     8297 1
    8025     9307    10007 1
    8026     4039     5006 1
    8027     2887     3422 1
    8028     2951     1807 1
    8029     8042     8251 1
    8030    10033    10232 1
    8031    10100    10645 1
    8032     8857     7794 1
    8033     7659     8118 1
    8034     9006     9348 1
    8035     2544     1800 1
    8036     6206     6281 1
    8037     4236     5272 1
    8038     8836     8594 1
    8039     5848     6123 1
    8040     3035     2259 1
    8041     3061     2337 1
    8042     2567     2850 1
    8043     2698     2794 1
    8044     4847    10256 1
    8045     9358    10351 1
    8046     5939     6463 1
    8047     5364     7136 1
    8048     5192     5256 1
    8049     8852     7508 1
    8050     3213     3482 1
    8051     7835     8455 1
    8052     4239     4776 1
    8053     9445     9755 1
    8054     5881     6907 1
    8055     8741    10675 1
    8056     7505     8223 1
    8057     1826     1852 1
    8058     1475      385 1
    8059     2990     1260 1
    8060     4467     4914 1
    8061     1927     2285 1
    8062     2729     2829 1
    8063     1012     4268 1
    8064     2350     3358 1
    8065     3785     4999 1
    8066     3270     2068 1
    8067     4130     4792 1
    8068      928     1688 1
    8069     4206     4308 1
    8070     1250      158 1
    8071     7527     7641 1
    8072     8892     7528 1
    8073     2681     1962 1
    8074     2603     2615 1
    8075      436     1715 1
    8076     5700     6464 1
    8077     6242     7806 1
    8078     7363     7489 1
    8079     4249     4646 1
    8080     5398     6279 1
    8081     1228       85 1
    8082      903     1343 1
    8083     2859     2253 1
    8084     3944     4061 1
    8085     7883     9759 1
    8086     9396     9823 1
    8087      551     1407 1
    8088     8998     9409 1
    8089     8655    10063 1
    8090     9869    10656 1
    8091     6217     6828 1
    8092     1610     1630 1
    8093     5561     7012 1
    8094     8384     8645 1
    8095     9398    10035 1
    8096     9875     9956 1
    8097     7623     7938 1
    8098       25      946 1
    8099     2717     2028 1
    8100      842      693 1
    8101     7193     8430 1
    8102     2055     2175 1
    8103     5790     6904 1
    8104     7696     8424 1
    8105     4539     4840 1
    8106     5010     5036 1
    8107     1317      107 1
    8108     3918     5184 1
    8109     6145     6390 1
    8110     7252     8333 1
    8111     1200      299 1
    8112     7399     7919 1
    8113     2340     2097 1
    8114     7691     8263 1
    8115     8852     8306 1
    8116     5694     7140 1
    8117     9298    10465 1
    8118     7322     8041 1
    8119     8865     7198 1
    8120     7668     7745 1
    8121     9864    10336 1
    8122     4334     4373 1
    8123     4209     4978 1
    8124     7400     7763 1
    8125     4142     4209 1
    8126     3151     3154 1
    8127     2651     2247 1
    8128      817     1744 1
    8129     8855     7437 1
    8130      944      743 1
    8131     6700     6897 1
    8132     6273     6474 1
    8133     6797     6990 1
    8134     5380     6316 1
    8135     9924    10044 1
    8136      726      132 1
    8137     5638     6685 1
    8138     1505       59 1
    8139      865     1522 1
    8140     2569     3179 1
    8141     3582     3697 1
    8142     2902     1819 1
    8143     3902     4900 1
    8144     8749     7763 1
    8145     3797     5310 1
    8146     8969    10318 1
    8147     5915     6467 1
    8148     2819     2866 1
    8149     9124    10513 1
    8150     2599     2022 1
    8151     3600     3796 1
    8152     7792     8564 1
    8153     9300     9447 1
    8154     7687     7797 1
    8155     4296     4321 1
    8156     5554     7091 1
    8157     4844     5151 1
    8158     4138     4996 1
    8159     5937     6539 1
    8160     4961     5041 1
    8161      667      209 1
    8162      425     1608 1
    8163     2885     2361 1
    8164     3041     3204 1
    8165     7308     8389 1
    8166     2788     3250 1
    8167     9248     9570 1
    8168     6048     6867 1
    8169     3624     4231 1
    8170     5534     6141 1
    8171     6019     6490 1
    8172      383      407 1
    8173     9728     9905 1
    8174     5719     6298 1
    8175     3816     4906 1
    8176     6375     6473 1
    8177     4926     5263 1
    8178      354      381 1
    8179     6312     6954 1
    8180     3253     3312 1
    8181     7590     8641 1
    8182     1259     1335 1
    8183     5698     6096 1
    8184      743     1428 1
    8185     4915     5158 1
    8186     3867     4338 1
    8187     2538     3465 1
    8188     1858     2139 1
    8189     8988    10657 1
    8190     2748     3602 1
    8191     9896    10061 1
    8192     4163     4977 1
    8193     2843     7378 1
    8194     2538     3430 1
    8195     7678     7952 1
    8196     8787     7477 1
    8197     1239      293 1
    8198     4832     4936 1
    8199     1582     1644 1
    8200     5564     6748 1
    8201     5813     6546 1
    8202     1386      354 1
    8203     6171     6239 1
    8204     5408     5863 1
    8205     3171     2134 1
    8206     9214     9605 1
    8207     9674    10697 1
    8208     9958    10251 1
    8209      549     4665 1
    8210     9872    10079 1
    8211     7809     8332 1
    8212      436     1822 1
    8213     1203      225 1
    8214     9897    10585 1
    8215     3009     2189 1
    8216      606     5640 1
    8217     3058     2210 1
    8218     7165     7645 1
    8219     1087       99 1
    8220      285      240 1
    8221      772     1110 1
    8222     5599     6291 1
    8223     2316     3333 1
    8224     1718       56 1
    8225     4786     5166 1
    8226      952     1325 1
    8227     9792    10553 1
    8228     7473     8157 1
    8229     7717     8376 1
    8230     7946     8223 1
    8231     1622      124 1
    8232     8562     8580 1
    8233     3694     4232 1
    8234     1750     2188 1
    8235     9535    10218 1
    8236     5553     6686 1
    8237      380      263 1
    8238     4043     4360 1
    8239     9537     9912 1
    8240     4394     9444 1
    8241     3766     4469 1
    8242     1392      216 1
    8243     2485     4579 1
    8244     6306     6618 1
    8245     6513     7039 1
    8246     1911     1931 1
    8247     1922     7831 1
    8248     7760     8247 1
    8249      835     1186 1
    8250     1032     1243 1
    8251      326     1755 1
    8252     3088     3328 1
    8253     6690     6712 1
    8254     8078     8506 1
    8255     3312     3439 1
    8256     8918     7687 1
    8257     6540     6611 1
    8258     9384     9606 1
    8259     2559     2038 1
    8260     5452     6450 1
    8261     7283     7635 1
    8262     5630     6161 1
    8263     1156     1231 1
    8264      575     1227 1
    8265       42      996 1
    8266    10083    10312 1
    8267     5808     6887 1
    8268     3605     5085 1
    8269     7420     8097 1
    8270     6536     6940 1
    8271     7470     7657 1
    8272     3006     3550 1
    8273     9918    10444 1
    8274     2720     2454 1
    8275     4781     5033 1
    8276     6681     6924 1
    8277     3650     3682 1
    8278     9362    10029 1
    8279     5492     6653 1
    8280     4919     5348 1
    8281     6383     6881 1
    8282     6989     7068 1
    8283     2655     1799 1
    8284      630      185 1
    8285     1197      116 1
    8286     7560     8247 1
    8287     2412     3368 1
    8288     2403     2233 1
    8289     4406     5026 1
    8290     5368     6763 1
    8291     8531     8603 1
    8292     4713     5047 1
    8293     9662     9900 1
    8294     2864     3421 1
    8295     3258     3286 1
    8296     7820     8227 1
    8297     6054     6711 1
    8298     4684     5079 1
    8299     9936    10501 1
    8300     4164     5195 1
    8301     5953     6148 1
    8302     5573     5888 1
    8303     8818     8290 1
    8304     6923     7140 1
    8305     3814     9608 1
    8306     4821     4943 1
    8307     2810     3237 1
    8308     2225     2256 1
    8309     1488     1489 1
    8310     3256     3352 1
    8311     7830     8452 1
    8312    10475    10632 1
    8313     3853     4835 1
    8314     1184      110 1
    8315     2598     2730 1
    8316       34      863 1
    8317     6318     7007 1
    8318     2421     2443 1
    8319       39     1297 1
    8320     8817     8202 1
    8321     6032     6356 1
    8322     5741     6915 1
    8323     8486     8684 1
    8324     9066    10506 1
    8325     5822     5911 1
    8326     6213     6234 1
    8327     1036      526 1
    8328     7270     7328 1
    8329     4477     4679 1
    8330     6888     7008 1
    8331     6234     6704 1
    8332     4801     5020 1
    8333     7165     7960 1
    8334     1009     1179 1
    8335     4494     5285 1
    8336     3894     4899 1
    8337     1189     1299 1
    8338     6622     6832 1
    8339     4411     5034 1
    8340     6476     6876 1
    8341     1722     1637 1
    8342     5956     6641 1
    8343     5810     5859 1
    8344     8742     8032 1
    8345     3897     4508 1
    8346     7934     8602 1
    8347     2643     1886 1
    8348     8851     7894 1
    8349     9465     9712 1
    8350     2879     2424 1
    8351     9127     9448 1
    8352     9049     9504 1
    8353     4446     5239 1
    8354     4031     4969 1
    8355     4311     4835 1
    8356     7498     7858 1
    8357     8057     8410 1
    8358     5529     5846 1
    8359     8969    10596 1
    8360      874      143 1
    8361     1939     2146 1
    8362      620     1601 1
    8363      714     1450 1
    8364     1106     1195 1
    8365     2565     1913 1
    8366     7597     8298 1
    8367     8830     7728 1
    8368     2570     7349 1
    8369      756       75 1
    8370     4013     4063 1
    8371     3027     2150 1
    8372        1     1250 1
    8373     4988     5135 1
    8374     5988    10447 1
    8375      654     1127 1
    8376     5936     6591 1
    8377     9317    10152 1
    8378     9346     9908 1
    8379     9798     9881 1
    8380     5730     6066 1
    8381     1849     2227 1
    8382     9398     9512 1
    8383     3058     3319 1
    8384     5733     5937 1
    8385     6527     6924 1
    8386     9720    10536 1
    8387     7318     8492 1
    8388     7207     8333 1
    8389     5928     6468 1
    8390     1342     1573 1
    8391     7725     7951 1
    8392     2676     2761 1
    8393     3869     4920 1
    8394     5934     6097 1
    8395     8645    10676 1
    8396     6154     6815 1
    8397     2889     2337 1
    8398     9765    10423 1
    8399     6856     6962 1
    8400     5933     6346 1
    8401     8502     8541 1
    8402     9036    10065 1
    8403     7367     7687 1
    8404     9501    10556 1
    8405     2791     3163 1
    8406     2098     2158 1
    8407     1093       88 1
    8408      725     1758 1
    8409     4012     4494 1
    8410     7228     7947 1
    8411     5762     6174 1
    8412     4832     5219 1
    8413     7851     8010 1
    8414     5567     6696 1
    8415     9948    10629 1
    8416      483      540 1
    8417     3704     5141 1
    8418     7161     7802 1
    8419     3090     2245 1
    8420     5585     6389 1
    8421     8172     8422 1
    8422     3728     5247 1
    8423     9696     9715 1
    8424     5885     6135 1
    8425     9273    10581 1
    8426     8870     8222 1
    8427      796      276 1
    8428     8983    10222 1
    8429     1122     1756 1
    8430     2402     3384 1
    8431     8812     7328 1
    8432     6013     6083 1
    8433        2      701 1
    8434      576     1295 1
    8435     6195     6264 1
    8436     9629    10418 1
    8437     9494    10257 1
    8438     8747     8643 1
    8439     7826     7838 1
    8440     2652     3440 1
    8441     4726     4911 1
    8442     5495     5685 1
    8443    10478    10681 1
    8444     6025     6154 1
    8445     7521     7779 1
    8446     4392     5129 1
    8447     3608     4723 1
    8448     2523     3272 1
    8449     9821    10610 1
    8450     4200     4805 1
    8451      998      775 1
    8452     7409     8248 1
    8453     5792     6300 1
    8454     9009     9446 1
    8455     2999     2479 1
    8456     2942     1828 1
    8457     4016     4528 1
    8458       29      865 1
    8459     4404     4586 1
    8460     2801     3508 1
    8461     5828     6764 1
    8462     6224     6793 1
    8463      731     1109 1
    8464     9220    10642 1
    8465     9816    10710 1
    8466     1259       82 1
    8467     4438     4909 1
    8468     1047      538 1
    8469     5521     5633 1
    8470     5670     6370 1
    8471     4740     4891 1
    8472     5499     6935 1
    8473     3146     1596 1
    8474     6180     6747 1
    8475     7803     7934 1
    8476     7858     8483 1
    8477     7947     8469 1
    8478     2658     1991 1
    8479     5234     5249 1
    8480      845      752 1
    8481     4139     4794 1
    8482    10113    10114 1
    8483     7888     8340 1
    8484     9938    10574 1
    8485     5563     5996 1
    8486     1836     2060 1
    8487     9964    10050 1
    8488     7824     8378 1
    8489     9127    10090 1
    8490     9378     9723 1
    8491     9420    10179 1
    8492     7816     8358 1
    8493     5467     7112 1
    8494      496      356 1
    8495     1131      126 1
    8496     2357     3213 1
    8497      471     1375 1
    8498     1017     1205 1
    8499     7361     8375 1
    8500     3604     5143 1
    8501     7503     8673 1
    8502     3882     4381 1
    8503     5052     5150 1
    8504     7220     7650 1
    8505     3744     3928 1
    8506     5414     5532 1
    8507     9520    10076 1
    8508     2959     3109 1
    8509     9695     9858 1
    8510     6050     6391 1
    8511     6258     6509 1
    8512     7741     8557 1
    8513     1188     1689 1
    8514     2459     3211 1
    8515     9603    10608 1
    8516     3302     3368 1
    8517     6199     6550 1
    8518     9072     9773 1
    8519     9239     9711 1
    8520     1251     3424 1
    8521     3317     3475 1
    8522     7296     8517 1
    8523     7872     8018 1
    8524     7153     8237 1
    8525     3083     3291 1
    8526      819      476 1
    8527     7168     8457 1
    8528     7382     8641 1
    8529     8073     8689 1
    8530     3934     4140 1
    8531     5729     6704 1
    8532     6054     6988 1
    8533     1498     1549 1
    8534      442     1383 1
    8535     1810     3529 1
    8536     3213     3548 1
    8537     2140     3397 1
    8538     9259    10210 1
    8539     7901     8419 1
    8540     8731     8454 1
    8541     5828     6647 1
    8542     8977     9858 1
    8543     6743     7062 1
    8544    10276    10717 1
    8545     4462     4671 1
    8546     7311     8562 1
    8547      781     1761 1
    8548     6058     6151 1
    8549     4132     4653 1
    8550     7801    10675 1
    8551     3336     2217 1
    8552     5393     5962 1
    8553     5756     5773 1
    8554     2501     3045 1
    8555     6127     6428 1
    8556      949      281 1
    8557     6736     6963 1
    8558     5792     6982 1
    8559     9173    10577 1
    8560     2499     2893 1
    8561     2294     3415 1
    8562     7182     7742 1
    8563     9423    10031 1
    8564     1482     1581 1
    8565     6383     6417 1
    8566    10135    10459 1
    8567     5747     6227 1
    8568     5371     6559 1
    8569     7414     7646 1
    8570     9654    10208 1
    8571     3606     3690 1
    8572      654     1657 1
    8573     5059     5060 1
    8574     9776    10153 1
    8575     9235    10510 1
    8576     3674     3772 1
    8577     2517     3069 1
    8578     3761     4196 1
    8579      974      736 1
    8580      489     1361 1
    8581     9110    10039 1
    8582     3574     4808 1
    8583      359       76 1
    8584     4109     4220 1
    8585     8919     7642 1
    8586     5838     6831 1
    8587     5050     5112 1
    8588     5044     5227 1
    8589     3901     4409 1
    8590       38     1528 1
    8591     1071      163 1
    8592     6408     6673 1
    8593    10199    10412 1
    8594     5405     5799 1
    8595     9166     9559 1
    8596     9908    10575 1
    8597     3138     1908 1
    8598     7360     8596 1
    8599     6489     6860 1
    8600      765      778 1
    8601     1018      146 1
    8602     7766     8291 1
    8603     7555     7772 1
    8604     3973     4556 1
    8605     4005     4923 1
    8606     5874     7017 1
    8607      888     5979 1
    8608     3545     3694 1
    8609     1004       78 1
    8610     4402     4780 1
    8611     3031     3113 1
    8612     7654     8260 1
    8613     5191     5212 1
    8614     1408      411 1
    8615     9637    10206 1
    8616      318      376 1
    8617     1834     3531 1
    8618      713      299 1
    8619     5408     7079 1
    8620    10578    10661 1
    8621     3078     3512 1
    8622     4164     8967 1
    8623     9934    10573 1
    8624     7352     8152 1
    8625    10384    10408 1
    8626      858      656 1
    8627     7752     8704 1
    8628     6073     7035 1
    8629     9325     9399 1
    8630     4171     9220 1
    8631     2586     2860 1
    8632     9357    10174 1
    8633     7887     8092 1
    8634     9598     9715 1
    8635      432     1621 1
    8636     7152     7447 1
    8637     2637     2658 1
    8638     7385     7723 1
    8639     4266     5231 1
    8640      123      218 1
    8641     1010     1716 1
    8642     9469     9877 1
    8643     3801     4931 1
    8644     7097     9600 1
    8645     4249     4261 1
    8646     6323     6944 1
    8647     3595     3624 1
    8648     3142     1999 1
    8649     8099     8440 1
    8650     5567     7029 1
    8651     8892     8570 1
    8652     2586     2821 1
    8653     6601    10420 1
    8654     7791     8430 1
    8655     4032     5303 1
    8656     5740     6574 1
    8657     8769     7577 1
    8658     9100    10248 1
    8659     1247      115 1
    8660     1520       95 1
    8661     9703    10379 1
    8662      674     1417 1
    8663     3652     4836 1
    8664     3186     3343 1
    8665     7670     8015 1
    8666     7536     8495 1
    8667    10692    10703 1
    8668     3479     3552 1
    8669     7812     8632 1
    8670     1086      274 1
    8671     4650     5223 1
    8672     3799     3843 1
    8673     7604     8418 1
    8674     8963     9098 1
    8675     7267     8203 1
    8676     3632     4932 1
    8677      708     1641 1
    8678     9331    10443 1
    8679     2612     3272 1
    8680     5693     7001 1
    8681     1337     1563 1
    8682     4971     5321 1
    8683     5948     7043 1
    8684     3630     4730 1
    8685     9225    10413 1
    8686      984     1737 1
    8687      641     1094 1
    8688     4267     5048 1
    8689     7507     7546 1
    8690     4280     5020 1
    8691     3903     4669 1
    8692     9148     9296 1
    8693     7655     8266 1
    8694     8829     7216 1
    8695     5629     5862 1
    8696     8951     9810 1
    8697     5154     5323 1
    8698     6091     7117 1
    8699     5433     6779 1
    8700     9852    10053 1
    8701     2697     2896 1
    8702     4320     5230 1
    8703      950     5536 1
    8704     7503     8212 1
    8705      803      281 1
    8706     3612     4897 1
    8707     6476     7021 1
    8708     3575     9088 1
    8709     7189     8131 1
    8710      479      355 1
    8711     8782     8113 1
    8712     6148     6264 1
    8713     6123     6386 1
    8714      518     1263 1
    8715    10113    10226 1
    8716      859      523 1
    8717     5628     6449 1
    8718      864     1622 1
    8719     7256     8396 1
    8720     2662     3151 1
    8721     9294     9657 1
    8722     9023     9439 1
    8723     2543     1898 1
    8724     7166     7343 1
    8725     5744     7105 1
    8726     2820     3124 1
    8727     3567     5214 1
    8728     9441     9858 1
    8729     1981     3512 1
    8730     8867     6809 1
    8731     2736     2018 1
    8732     1374     7275 1
    8733       37     1376 1
    8734     7471     7603 1
    8735     7810     7993 1
    8736     5357     5794 1
    8737      303      328 1
    8738     7366     7748 1
    8739     4117     4285 1
    8740     2997     2217 1
    8741     5631     6362 1
    8742     8985     9395 1
    8743     3158     3338 1
    8744      516      330 1
    8745     8740     7672 1
    8746     9824    10039 1
    8747     3962     4359 1
    8748     2668     2352 1
    8749     8875     7483 1
    8750     9782    10098 1
    8751     6693     6976 1
    8752     4199     4459 1
    8753      998      347 1
    8754     1267     1638 1
    8755     6260     6331 1
    8756     9060    10074 1
    8757     2016     8228 1
    8758     8622     8652 1
    8759     2529     3179 1
    8760     9590    10358 1
    8761     4099     5158 1
    8762     2759     2455 1
    8763     6805     6823 1
    8764     9222    10374 1
    8765     6149     6757 1
    8766     5854     6537 1
    8767     3936     4621 1
    8768     4080     4538 1
    8769     3240     2274 1
    8770     4258     5216 1
    8771     7315     8192 1
    8772     2517     7377 1
    8773     6056     9614 1
    8774     1612      184 1
    8775     2683     8914 1
    8776     9105    10614 1
    8777     2015     3385 1
    8778     3793     4517 1
    8779     2607     2257 1
    8780       27     1165 1
    8781     1047      155 1
    8782     5794     6641 1
    8783     4757     5276 1
    8784     5471     6124 1
    8785     2681     2175 1
    8786     3780     5156 1
    8787     1665     1680 1
    8788     4283     4955 1
    8789     9143    10478 1
    8790     9920    10459 1
    8791     9815    10449 1
    8792      732     1088 1
    8793     7237     8670 1
    8794     4119     5303 1
    8795     6067     6840 1
    8796     3946     5135 1
    8797     9597    10597 1
    8798     4865     5351 1
    8799     9148    10607 1
    8800     2268     3440 1
    8801      629     1584 1
    8802     2802     3464 1
    8803     3584     5054 1
    8804     3644     4476 1
    8805      882      694 1
    8806     5795     7184 1
    8807     7781     8265 1
    8808     2771     2845 1
    8809     5549     6172 1
    8810     1295     1677 1
    8811     8827     7310 1
    8812     7812     8117 1
    8813     6347     6423 1
    8814     1022     1108 1
    8815     7991     8613 1
    8816     5660     6729 1
    8817     4040     4910 1
    8818     2799     1980 1
    8819     3666     4333 1
    8820     3857     5023 1
    8821     2685     3395 1
    8822     5672     5893 1
    8823     6034     6268 1
    8824      739     1067 1
    8825     3649     4992 1
    8826     3945     5045 1
    8827      880      544 1
    8828      810     1153 1
    8829     7926     8345 1
    8830     9778    10446 1
    8831     2619     2688 1
    8832     5442     7044 1
    8833     8822     7780 1
    8834     2672     3378 1
    8835     7647     8258 1
    8836     8071     8662 1
    8837     5382     5660 1
    8838     9061    10601 1
    8839     4818     5176 1
    8840      847      950 1
    8841      815     4306 1
    8842     7906     8213 1
    8843     6239     6985 1
    8844     6159     6759 1
    8845     9260    10123 1
    8846      922     1506 1
    8847     7416     8146 1
    8848    10291    10578 1
    8849     9525    10223 1
    8850      880      569 1
    8851     4067     4678 1
    8852     4342     4565 1
    8853     4596     4851 1
    8854     2473     3302 1
    8855     5454     6858 1
    8856     3718     4784 1
    8857     6198     6867 1
    8858     9643    10420 1
    8859    10422    10484 1
    8860      255     6031 1
    8861     3585     4514 1
    8862     7559     8696 1
    8863    10379    10449 1
    8864     7448     8010 1
    8865     5486     6253 1
    8866     9815     9865 1
    8867     9414     9763 1
    8868     3829     3840 1
    8869     1005      614 1
    8870     5647     6364 1
    8871     7618     7967 1
    8872    10241    10553 1
    8873     7347     8234 1
    8874     8946    10653 1
    8875     5561     5741 1
    8876     5722     6225 1
    8877    10466    10715 1
    8878     1141      162 1
    8879     9280    10273 1
    8880     3300     1999 1
    8881     7970     8702 1
    8882     2548     3559 1
    8883      497       77 1
    8884     5958     6333 1
    8885     3597     5225 1
    8886     3911     4192 1
    8887     2542     2808 1
    8888     9017     9157 1
    8889     1018     1385 1
    8890     8976    10003 1
    8891     3108     2062 1
    8892     7857     8599 1
    8893      818     1515 1
    8894     9917     9941 1
    8895      948     1367 1
    8896     6080     6828 1
    8897     8142     8710 1
    8898     8096     8515 1
    8899      970      518 1
    8900     7883     8215 1
    8901     6452     6882 1
    8902     3819     4185 1
    8903    10432    10504 1
    8904     7624     7681 1
    8905      532     1535 1
    8906     5367     7075 1
    8907     1031       56 1
    8908     3165     1929 1
    8909     5529     6459 1
    8910     7440     8239 1
    8911     7539     8155 1
    8912      279      168 1
    8913     8768     7166 1
    8914     6354     6365 1
    8915    10213    10477 1
    8916     5677     5958 1
    8917     3825     4196 1
    8918     5852     6569 1
    8919     7742     8436 1
    8920      470       66 1
    8921     1952     1992 1
    8922     2399     8036 1
    8923     9530     9713 1
    8924     5385     6075 1
    8925     8825     8324 1
    8926     2714     3498 1
    8927     9634     9785 1
    8928     6316     6689 1
    8929     6365     6827 1
    8930      873      543 1
    8931     2707     3222 1
    8932     5782     5914 1
    8933     9272    10272 1
    8934     1224     1493 1
    8935     2315     2096 1
    8936     3752     5015 1
    8937     9194    10339 1
    8938     1007      395 1
    8939     6087     6592 1
    8940     3851     4806 1
    8941     6338     6363 1
    8942     9368    10452 1
    8943     6481     6626 1
    8944      504     1258 1
    8945     6290     6834 1
    8946     5654     6079 1
    8947     8735     8659 1
    8948     8304     8626 1
    8949     5881     5905 1
    8950     5580     5883 1
    8951     7597     8331 1
    8952     6041     6636 1
    8953     5522     6538 1
    8954     9016     9851 1
    8955     6208     6755 1
    8956     4021     4660 1
    8957     5530     6138 1
    8958     8722     7330 1
    8959     9023     9366 1
    8960     5631     5753 1
    8961     1043     1515 1
    8962    10308    10311 1
    8963     3265     3327 1
    8964     6057     6668 1
    8965     7623     8660 1
    8966      482      542 1
    8967     5032     5234 1
    8968     3732     4590 1
    8969      916     1269 1
    8970     5706     6466 1
    8971     1321      136 1
    8972     8738     7677 1
    8973      516       74 1
    8974     4267     5344 1
    8975     7929     8542 1
    8976     2019     2253 1
    8977      778     1595 1
    8978     5701     6332 1
    8979     7941     8489 1
    8980     7312     7353 1
    8981     2612     3344 1
    8982      512      646 1
    8983     7324     8322 1
    8984     9229    10180 1
    8985     9279    10069 1
    8986     9099    10064 1
    8987     1386       72 1
    8988     8916     8576 1
    8989     7695     8465 1
    8990     7433     8338 1
    8991     2831     3486 1
    8992       19      658 1
    8993     6304     6978 1
    8994     4780     5229 1
    8995      735      309 1
    8996     2667     8772 1
    8997     5608     6492 1
    8998      959     1581 1
    8999     9466     9670 1
    9000      722      777 1
    9001     5372     6886 1
    9002     4733     5198 1
    9003     3911     5114 1
    9004     3726     3837 1
    9005     9099    10546 1
    9006      570      379 1
    9007     3812     3813 1
    9008     8949     8969 1
    9009    10168    10539 1
    9010     9659    10329 1
    9011      851     1578 1
    9012     1009      333 1
    9013     9536     9921 1
    9014     3571     3865 1
    9015     8883     7476 1
    9016     5546     6399 1
    9017     7718     8324 1
    9018     4183     5276 1
    9019     9455    10131 1
    9020     4325     4617 1
    9021     9559    10648 1
    9022      872     1507 1
    9023     9393    10092 1
    9024     3081     1919 1
    9025     7928     8299 1
    9026     2810     1789 1
    9027     2825     3535 1
    9028     7842     8614 1
    9029    10170    10636 1
    9030     5856     6736 1
    9031     8375     8460 1
    9032     7406     7493 1
    9033     3130     1977 1
    9034     8868     7218 1
    9035     8004     8266 1
    9036     3230     1974 1
    9037     3158     2020 1
    9038     2030     3419 1
    9039     3977     4906 1
    9040     1019     1537 1
    9041     4013     4186 1
    9042     4004     4951 1
    9043     5654     6556 1
    9044     8915     8658 1
    9045     4989     5324 1
    9046     7156     7743 1
    9047      661      325 1
    9048     2373     2026 1
    9049     6551     7035 1
    9050     2554     2781 1
    9051     3031     2324 1
    9052     3910     5313 1
    9053     1141     1669 1
    9054     5687     6051 1
    9055     5492     5691 1
    9056     5542     7051 1
    9057     7164     7170 1
    9058     1842     1959 1
    9059     3620     3963 1
    9060     4273     4383 1
    9061     9471     9923 1
    9062     9640     9830 1
    9063     3798     4650 1
    9064     1016     1727 1
    9065    10496    10605 1
    9066     2761     2189 1
    9067     4485     5111 1
    9068     5046     5230 1
    9069     3066     8464 1
    9070     9998    10699 1
    9071     2651     2868 1
    9072     3751     4072 1
    9073     4530     5134 1
    9074     2924     2168 1
    9075     5997     7094 1
    9076     7524     7707 1
    9077     5571     6856 1
    9078     5939     6007 1
    9079     3188     3533 1
    9080     5925     5943 1
    9081     1934     7156 1
    9082     5103     5261 1
    9083      757     1270 1
    9084     9612    10235 1
    9085     2121     3373 1
    9086      666     1183 1
    9087     4574     4843 1
    9088     1572      145 1
    9089     5871     6994 1
    9090     7933     8169 1
    9091    10227    10408 1
    9092     7145     7779 1
    9093     2647     2303 1
    9094     7405     7661 1
    9095     5937     6926 1
    9096     8801     7878 1
    9097     8790     7502 1
    9098     9557    10513 1
    9099     3949     4928 1
    9100     9056     9138 1
    9101     9960    10033 1
    9102     9288    10683 1
    9103      932      985 1
    9104     8400    10583 1
    9105     8948    10498 1
    9106       43      805 1
    9107      645     1305 1
    9108    10099    10172 1
    9109     8963    10559 1
    9110     1830     2245 1
    9111      208     6150 1
    9112     3751     5301 1
    9113      504      147 1
    9114     4815     5336 1
    9115     3673     5278 1
    9116     8094     8367 1
    9117      367     1705 1
    9118     3182     2038 1
    9119     2704     3055 1
    9120     5112     5287 1
    9121     3661     5065 1
    9122     8077     8606 1
    9123     1357     1694 1
    9124     2520     2762 1
    9125     7916     8562 1
    9126     1294      139 1
    9127     5791     5958 1
    9128     4026     5290 1
    9129    10371    10494 1
    9130     7334     8594 1
    9131     2661     2205 1
    9132     3011     2349 1
    9133     7273     7486 1
    9134      756     1602 1
    9135     1888     3456 1
    9136     3034     3547 1
    9137     4360     4708 1
    9138     4760     5087 1
    9139     2802     2379 1
    9140     5925     6821 1
    9141     5427     6608 1
    9142     3947     4533 1
    9143      592      148 1
    9144     2610     3336 1
    9145     6376    10360 1
    9146      268     1726 1
    9147     2771     1853 1
    9148     4644     5319 1
    9149     3688     4817 1
    9150     5266     5343 1
    9151     3993     5110 1
    9152     4582     5166 1
    9153     6329     7103 1
    9154     9920    10125 1
    9155     7608     8011 1
    9156     6132     6915 1
    9157     5944     6159 1
    9158     9121    10088 1
    9159     2317     3410 1
    9160     3757     5202 1
    9161     7407     7631 1
    9162    10612    10698 1
    9163     5431     6235 1
    9164     5645     8500 1
    9165     9692     9808 1
    9166     7971     8053 1
    9167      944      473 1
    9168     6031     6547 1
    9169     7340     7542 1
    9170     2840     1907 1
    9171     3613     5190 1
    9172     6297     6432 1
    9173      728     1124 1
    9174     7684     8021 1
    9175     5920     6353 1
    9176     5452     6541 1
    9177    10415    10467 1
    9178     5740     5926 1
    9179     7174     7568 1
    9180     8784     8869 1
    9181     3995     5190 1
    9182     9310    10362 1
    9183     1382     1779 1
    9184     2510     1912 1
    9185     7405     7475 1
    9186     9363     9615 1
    9187     8868     7575 1
    9188     9087     9976 1
    9189     5997     6301 1
    9190     9204    10043 1
    9191     2037     3458 1
    9192     4164     4854 1
    9193     9278    10498 1
    9194     5645     6833 1
    9195     3961     4630 1
    9196     9039     9240 1
    9197     7738     8117 1
    9198     9248     9673 1
    9199      332     1775 1
    9200     7836     7931 1
    9201      821     1543 1
    9202     7583     8515 1
    9203      854     1179 1
    9204     2722     2311 1
    9205     1101      345 1
    9206     7203     7637 1
    9207     7595     8475 1
    9208     1352      128 1
    9209     9120    10708 1
    9210     6984     7050 1
    9211     2999     3226 1
    9212     2556     2719 1
    9213      413       98 1
    9214     9171    10543 1
    9215     1116     1509 1
    9216      590      247 1
    9217     4078     5224 1
    9218     4094     5161 1
    9219     7174     7342 1
    9220     5389     6190 1
    9221      397     1608 1
    9222     8778     8111 1
    9223     6624     6956 1
    9224     1015     1597 1
    9225     2931     1967 1
    9226       19      867 1
    9227      535     1628 1
    9228     4715     4958 1
    9229     2842     2177 1
    9230     2498     1823 1
    9231     6401     6919 1
    9232     5831     6168 1
    9233     6020     6138 1
    9234     1427      413 1
    9235     7178     8171 1
    9236     4391     4473 1
    9237     1480       83 1
    9238     2323     3275 1
    9239     2565     3287 1
    9240     4577     5284 1
    9241     2942     1970 1
    9242      926     1472 1
    9243     1748       58 1
    9244     5406     5815 1
    9245     3576     4968 1
    9246     3119     1993 1
    9247     7410     7917 1
    9248     7271     7291 1
    9249     9515     9526 1
    9250     1234     1450 1
    9251     9801    10252 1
    9252     4510     5328 1
    9253     3037     2395 1
    9254     7149     8100 1
    9255     6046     6593 1
    9256     8727     8321 1
    9257     2642     2944 1
    9258     5836     6800 1
    9259     3671     4768 1
    9260     7003    10192 1
    9261     3818     3892 1
    9262     8736     7381 1
    9263     3877     3940 1
    9264      567      579 1
    9265     3245     2047 1
    9266     7184     7617 1
    9267     6475     7009 1
    9268     9709    10240 1
    9269     9086     9513 1
    9270     9291     9417 1
    9271    10358    10625 1
    9272     9583    10037 1
    9273     9173    10680 1
    9274     1048     1283 1
    9275     4118     4672 1
    9276     9202    10321 1
    9277      817     1381 1
    9278     2901     3293 1
    9279     4169     5295 1
    9280     3139     3178 1
    9281      563     1667 1
    9282     9597    10009 1
    9283     4055     5025 1
    9284     7980     8360 1
    9285     7469     7741 1
    9286     5012     5031 1
    9287     9108     9312 1
    9288    10109    10570 1
    9289     1873     3497 1
    9290    10314    10639 1
    9291     1400       82 1
    9292     9188     9368 1
    9293     9234    10134 1
    9294     2367     2002 1
    9295     1082     1616 1
    9296     7995     8675 1
    9297     5518     6485 1
    9298     5544     6103 1
    9299     5836     6613 1
    9300     3308     2231 1
    9301      317       93 1
    9302     5774     6290 1
    9303     6388     6718 1
    9304     1884     2289 1
    9305     7812     8052 1
    9306      939      798 1
    9307     2017     3418 1
    9308     3805     5250 1
    9309      989      232 1
    9310     5362     6723 1
    9311      771     1414 1
    9312     7374     8097 1
    9313     2795     2967 1
    9314     5806     6464 1
    9315     4724     5273 1
    9316     6844     7040 1
    9317     3040     3160 1
    9318     3637     4323 1
    9319     7290     8461 1
    9320      568     1085 1
    9321    10113    10536 1
    9322     2741     2905 1
    9323     9315    10383 1
    9324      526     1324 1
    9325     6424     6428 1
    9326     5362     5734 1
    9327     3063     2376 1
    9328     8743     8319 1
    9329     6129     7140 1
    9330     6358     6405 1
    9331     5657     5987 1
    9332     8438     8641 1
    9333     5688     7136 1
    9334     9852    10121 1
    9335      871     1489 1
    9336       43      715 1
    9337     1050      231 1
    9338     2616     2187 1
    9339     9508     9520 1
    9340     7819     8421 1
    9341     3766     5219 1
    9342     8874     7660 1
    9343     7180     8678 1
    9344     1755     1765 1
    9345     2810     3140 1
    9346     8730     7390 1
    9347     5754     6422 1
    9348     9758    10114 1
    9349     5980     7070 1
    9350     7297     7305 1
    9351     9236     9433 1
    9352     3247     3447 1
    9353     5646     6557 1
    9354     7443     7913 1
    9355      906     1120 1
    9356     7457     8428 1
    9357     3311     2092 1
    9358     1900     2236 1
    9359     1899     3442 1
    9360     7711     8028 1
    9361     3791     4556 1
    9362     3282     3333 1
    9363     4090     4988 1
    9364     6818     7076 1
    9365      922       57 1
    9366     5539     5727 1
    9367     2884     1863 1
    9368     2853     3442 1
    9369     7710     8233 1
    9370     9494     9661 1
    9371     1118     1262 1
    9372     5904     6244 1
    9373     3850     4756 1
    9374     3154     1936 1
    9375     3616     5286 1
    9376     8312     8369 1
    9377     9608     9717 1
    9378     9513    10619 1
    9379     7439     7856 1
    9380     9105    10356 1
    9381     5481     7023 1
    9382     4722     5047 1
    9383     1386     1762 1
    9384      917     1542 1
    9385     4414     5316 1
    9386     9203     9552 1
    9387     3894     5304 1
    9388     7849     8559 1
    9389     9925    10260 1
    9390     8753     7505 1
    9391     7455     8457 1
    9392     3583     3672 1
    9393      946      963 1
    9394     4401     4988 1
    9395     8737     7438 1
    9396     8986     9750 1
    9397     6020     7036 1
    9398    10017    10662 1
    9399     8822     7850 1
    9400     9231    10209 1
    9401     9714     9874 1
    9402     2540     3385 1
    9403     4442     4934 1
    9404     3267     3365 1
    9405     9026    10210 1
    9406     6366     6757 1
    9407     9148    10274 1
    9408     7482     8065 1
    9409     9160    10146 1
    9410     6959     8509 1
    9411     2802     3360 1
    9412     7081     9768 1
    9413     3845     4957 1
    9414      873      423 1
    9415     2981     3125 1
    9416     3978     4873 1
    9417      509      364 1
    9418     4150     5243 1
    9419        9      924 1
    9420     8936     9511 1
    9421     2393     1971 1
    9422     2538     2640 1
    9423     9589    10222 1
    9424     3578     4354 1
    9425     6518     6895 1
    9426     3131     2076 1
    9427     5704     7550 1
    9428     2607     1910 1
    9429    10278    10476 1
    9430     4088     4337 1
    9431     3820     4159 1
    9432     3019     3522 1
    9433     6090     6426 1
    9434     2311     2226 1
    9435     4378     4720 1
    9436     3045     3122 1
    9437     7887     8576 1
    9438      660      789 1
    9439     7427     8705 1
    9440     4128     4757 1
    9441      873     1769 1
    9442       39     1117 1
    9443     8904     7220 1
    9444     8903     8271 1
    9445     2857     2071 1
    9446     9538     9959 1
    9447     8965     9679 1
    9448     9554    10610 1
    9449     9419    10452 1
    9450      382      207 1
    9451      652      247 1
    9452     3768     4234 1
    9453     5929     6741 1
    9454     6370     7052 1
    9455    10332    10574 1
    9456     8045     8609 1
    9457     3028     2262 1
    9458      435     1277 1
    9459      288      108 1
    9460     6034     6845 1
    9461     9022     9720 1
    9462     8936     9374 1
    9463     1034      153 1
    9464     1271     1556 1
    9465      451     1325 1
    9466     7296     8652 1
    9467     3306     2280 1
    9468     5673     6643 1
    9469     6166     6971 1
    9470     9033    10030 1
    9471     9757    10565 1
    9472     1022      595 1
    9473     9008     9295 1
    9474      238     6421 1
    9475     2790     3353 1
    9476     7434     8388 1
    9477      586     1674 1
    9478     8908     7765 1
    9479     7152     7592 1
    9480     9680    10035 1
    9481     9326     9840 1
    9482     1220     1316 1
    9483     2410     2133 1
    9484     3534     3545 1
    9485     4151     4392 1
    9486      691     4239 1
    9487     9007     9699 1
    9488     7419     7513 1
    9489     1166       95 1
    9490     9237     9566 1
    9491     7706     8567 1
    9492     1002      794 1
    9493     6166     6683 1
    9494     6335     6637 1
    9495      429     1510 1
    9496      845     1464 1
    9497     6644     7001 1
    9498     7832     8228 1
    9499     4611     5085 1
    9500     1112     1646 1
    9501      573      116 1
    9502     7810     8140 1
    9503      291     1703 1
    9504     3920     4097 1
    9505     9933    10711 1
    9506     2786     2190 1
    9507     8778     8177 1
    9508     1147      192 1
    9509     4599     5327 1
    9510     5489    10703 1
    9511     2812     1895 1
    9512     9453    10290 1
    9513     3626     4822 1
    9514     7246     8003 1
    9515     2583     2727 1
    9516     8087     8471 1
    9517     9134     9335 1
    9518     5082     5343 1
    9519     5970     6720 1
    9520     7502     7822 1
    9521     7232     7573 1
    9522     5445     6633 1
    9523    10418    10601 1
    9524     4464     5010 1
    9525     5709     6908 1
    9526     4089     4167 1
    9527     1204     4827 1
    9528     9386    10522 1
    9529     4869     5315 1
    9530     6179     6191 1
    9531     3871     4943 1
    9532     3968     5078 1
    9533       14     1091 1
    9534     4445     5214 1
    9535    10321    10640 1
    9536     4356     5023 1
    9537     7511     8350 1
    9538     8110     8715 1
    9539     7464     8443 1
    9540     1055     1761 1
    9541     2954     3354 1
    9542     2684     2755 1
    9543     2610     3454 1
    9544     4290     5041 1
    9545     8119     8422 1
    9546      949      234 1
    9547     3765     4654 1
    9548     8874     7747 1
    9549     5400     6347 1
    9550     2310     1998 1
    9551     5789     6661 1
    9552     9382    10296 1
    9553     2976     3490 1
    9554     2742     3427 1
    9555     3782     3907 1
    9556     9167    10417 1
    9557    10255    10510 1
    9558     5457     5825 1
    9559     4922     4961 1
    9560     4284     4826 1
    9561     7863     8105 1
    9562     9487     9761 1
    9563     5676     6402 1
    9564     7591     8249 1
    9565     1493      217 1
    9566     4402     5049 1
    9567     6417     6861 1
    9568     9538    10218 1
    9569     7272     7870 1
    9570     7356     8292 1
    9571     2760     7698 1
    9572     7683     8394 1
    9573     5522     5989 1
    9574     3160     3243 1
    9575     7526     7551 1
    9576     7194     8478 1
    9577     4607     5008 1
    9578     7284     8137 1
    9579     3702     4055 1
    9580     5608     6751 1
    9581     9021    10366 1
    9582    10345    10690 1
    9583     2387     3508 1
    9584     5391     5539 1
    9585     1521     1691 1
    9586     3828     4668 1
    9587     4148     4849 1
    9588     2141     3443 1
    9589     4602     4609 1
    9590     2544     3229 1
    9591      750     1691 1
    9592     7881     8240 1
    9593     2841     3196 1
    9594      926      450 1
    9595     7717     8690 1
    9596     4337     4561 1
    9597     3637     5289 1
    9598      968      346 1
    9599     3771     4539 1
    9600     9280    10508 1
    9601     9541    10567 1
    9602     9369    10482 1
    9603     5713     7076 1
    9604      884     1391 1
    9605     5653     6128 1
    9606     7606     7692 1
    9607     5559     7020 1
    9608     7709     7721 1
    9609     1793     2252 1
    9610     2476     1862 1
    9611     1215     1243 1
    9612     5438     5905 1
    9613     9580    10144 1
    9614     4356     4460 1
    9615     6198     6841 1
    9616      586     1681 1
    9617     1365      305 1
    9618     3882     4038 1
    9619     5624     5752 1
    9620     2602     2648 1
    9621      672     1208 1
    9622     2328     2081 1
    9623     8091     8664 1
    9624     9051     9514 1
    9625     8807     8012 1
    9626     9553    10276 1
    9627     9894    10052 1
    9628     4272     4931 1
    9629     7342     7468 1
    9630     8217     8931 1
    9631     1245     1326 1
    9632     2136     2276 1
    9633     3743     4390 1
    9634     8566     9954 1
    9635     7842     7985 1
    9636     5985     6506 1
    9637     6051     6536 1
    9638     9005    10161 1
    9639     2737     2366 1
    9640     6035     7066 1
    9641     6133     6747 1
    9642     4185     5170 1
    9643     7260     7597 1
    9644     6868     7769 1
    9645     3726     4178 1
    9646     6185     6906 1
    9647     7263     8686 1
    9648     9016    10422 1
    9649     7802     8067 1
    9650     1502      156 1
    9651     7538     8207 1
    9652     9267     9399 1
    9653     4050     4929 1
    9654     8017     8139 1
    9655     9587    10041 1
    9656     2305     2005 1
    9657     2375     1928 1
    9658     3194     2203 1
    9659       44     1574 1
    9660     5038     5098 1
    9661     4192     4758 1
    9662     9320     9437 1
    9663     3068     2267 1
    9664     9565    10319 1
    9665      834     1212 1
    9666     3038     2344 1
    9667     7716     8576 1
    9668     1003     1569 1
    9669     4454     4905 1
    9670     8202     8616 1
    9671     1879     3504 1
    9672      628      313 1
    9673     2733     3143 1
    9674    10131    10240 1
    9675     2875     3077 1
    9676     2682     2888 1
    9677     2592     2319 1
    9678     9397    10228 1
    9679     2542     2271 1
    9680      901      207 1
    9681     2099     2136 1
    9682     7319     8377 1
    9683      905     1174 1
    9684     7763     7966 1
    9685     6310     6327 1
    9686     4436     4631 1
    9687     3813     4575 1
    9688     3004     1855 1
    9689     2989     2086 1
    9690     4543     4969 1
    9691      432      136 1
    9692    10025    10557 1
    9693     7830     7928 1
    9694      633      209 1
    9695     7496     7637 1
    9696     6173     6465 1
    9697      906     1701 1
    9698     2163     3468 1
    9699     7757     8697 1
    9700     7310     7697 1
    9701      616     1572 1
    9702     3593     4303 1
    9703     5746     6329 1
    9704     7277     8094 1
    9705      677      252 1
    9706     8993     9198 1
    9707     8763     8479 1
    9708     1847     2252 1
    9709     7999     8634 1
    9710     5068     5118 1
    9711      808     1763 1
    9712     5640     6406 1
    9713     7547     7812 1
    9714     3570     4492 1
    9715     8595    10659 1
    9716     3309     3428 1
    9717     7597     8108 1
    9718     1844     3378 1
    9719     1235     1495 1
    9720     2874     1792 1
    9721     9883    10166 1
    9722     9385     9577 1
    9723     2523     2852 1
    9724     9344    10165 1
    9725      738     1748 1
    9726     4525     4985 1
    9727     9502     9592 1
    9728     2970     1845 1
    9729     2643     2726 1
    9730      419      193 1
    9731     3733     5122 1
    9732     3915     5283 1
    9733     5619     5691 1
    9734     5665     6136 1
    9735     8359     8523 1
    9736     3261     3443 1
    9737     7983     8335 1
    9738      665      135 1
    9739     3706     4066 1
    9740     6212     6461 1
    9741     5825     7101 1
    9742     6110     6632 1
    9743     8629     8693 1
    9744     5635     6313 1
    9745     6503     6777 1
    9746     6168     6392 1
    9747     7737     8126 1
    9748     9038     9798 1
    9749     3739     4343 1
    9750     8750     7376 1
    9751     4326     5273 1
    9752     7558     8074 1
    9753     1296      429 1
    9754     3944     4568 1
    9755     5806     6944 1
    9756     2552     3168 1
    9757     2587     2409 1
    9758     1985     3440 1
    9759     5719     6886 1
    9760      438     1367 1
    9761     5442     6787 1
    9762     7327     8404 1
    9763      994      769 1
    9764     4201     4260 1
    9765     3645     4108 1
    9766      364       91 1
    9767     1134     1236 1
    9768     1371       90 1
    9769     3765     4827 1
    9770     6426     6830 1
    9771     5587     9074 1
    9772     5686     5874 1
    9773     1052     1539 1
    9774     7097    10534 1
    9775     5807     6733 1
    9776     9005    10620 1
    9777     3092     3173 1
    9778     3275     2228 1
    9779     9228    10131 1
    9780      940     1617 1
    9781     2903     2294 1
    9782     3894     5228 1
    9783     8759     7480 1
    9784     2811     2010 1
    9785     3763     4366 1
    9786     9129    10337 1
    9787     7280     8566 1
    9788     2630     2705 1
    9789     2909     3274 1
    9790     9176     9881 1
    9791     7306     8457 1
    9792     5694     6734 1
    9793     9083    10428 1
    9794     4288     4872 1
    9795     2301     2168 1
    9796     2928     2405 1
    9797     3921     4632 1
    9798     8852     7903 1
    9799     5933     7041 1
    9800     8095     8313 1
    9801     2839     3282 1
    9802     7430    10293 1
    9803      822     1711 1
    9804     9082     9534 1
    9805     6836     7020 1
    9806     2856     1943 1
    9807      782     1065 1
    9808     3058     3322 1
    9809     7244     8310 1
    9810     1199      353 1
    9811     2758     7698 1
    9812     6766     7113 1
    9813     9349     9417 1
    9814     5997     6825 1
    9815     9764     9875 1
    9816     6185     6843 1
    9817     7575     8691 1
    9818     3862     4562 1
    9819     6012     6779 1
    9820      478     1249 1
    9821     3231     2128 1
    9822     3849     4813 1
    9823     5429     6121 1
    9824     6418     7120 1
    9825      826     1636 1
    9826     2938     3315 1
    9827     1897     2300 1
    9828     3634     4954 1
    9829      936     1409 1
    9830     7721     8282 1
    9831     1447      220 1
    9832     7841     8035 1
    9833     3919     5230 1
    9834     3082     2359 1
    9835     4863     5246 1
    9836     5764     6903 1
    9837      468      247 1
    9838     5972     6916 1
    9839     5607     5608 1
    9840     7457     8603 1
    9841     4922     5185 1
    9842     8573     8600 1
    9843     4626     9173 1
    9844     9697    10623 1
    9845     6083     7055 1
    9846     9158     9525 1
    9847     2846     2850 1
    9848     3790     4594 1
    9849     5721     5867 1
    9850     7939     8150 1
    9851     4316     4433 1
    9852     6252     6337 1
    9853     4119     4946 1
    9854     9860    10483 1
    9855     2908     3535 1
    9856     9490    10096 1
    9857     2416     1989 1
    9858      984      663 1
    9859     9106    10105 1
    9860     2898     3297 1
    9861     6531     6743 1
    9862     6694     6895 1
    9863      562     1363 1
    9864     9891    10309 1
    9865     9472    10212 1
    9866    10543    10584 1
    9867     7295     8494 1
    9868     2644     2903 1
    9869     7417     8169 1
    9870     1493       94 1
    9871     6172     6786 1
    9872     6398     6701 1
    9873     4021     4135 1
    9874     9276     9453 1
    9875     8898     7196 1
    9876     5813     6513 1
    9877     7464     7959 1
    9878     5910     6478 1
    9879     1039      311 1
    9880     6522     6973 1
    9881     9465    10266 1
    9882     7459     7496 1
    9883      927      245 1
    9884     8203     8405 1
    9885     3589     4433 1
    9886     7316     8244 1
    9887      328      201 1
    9888      593     1277 1
    9889     8885     8273 1
    9890      349     1688 1
    9891     9887     9930 1
    9892     4024     4209 1
    9893       33      736 1
    9894     5599     6745 1
    9895     3943     4977 1
    9896     6356     6966 1
    9897     5369     5420 1
    9898     5745     6502 1
    9899     2718     2934 1
    9900     5470     5878 1
    9901     7595     7643 1
    9902     5818     6033 1
    9903     5669     7057 1
    9904     3714     4914 1
    9905     9491    10349 1
    9906     7292     7714 1
    9907     2534     3486 1
    9908     1148     1413 1
    9909     4378     4762 1
    9910     9701     9966 1
    9911     8940     9548 1
    9912     4853     4971 1
    9913     1940     2287 1
    9914     5510     6733 1
    9915     9471    10533 1
    9916      998      277 1
    9917     1142     1671 1
    9918     2890     2472 1
    9919     9066     9669 1
    9920     2762     2786 1
    9921     8066     8619 1
    9922     1689      188 1
    9923     4351     4962 1
    9924     4441     5340 1
    9925      929     1136 1
    9926     4375     4488 1
    9927     3920     5211 1
    9928     7456     7463 1
    9929     1676      258 1
    9930      927      817 1
    9931      294      252 1
    9932    10176    10437 1
    9933     8999    10537 1
    9934      532     1592 1
    9935     4260     4450 1
    9936     3718     4620 1
    9937     4208     4452 1
    9938     4011     4862 1
    9939     5596     6854 1
    9940     7237     7922 1
    9941     5583     6370 1
    9942     3972     4976 1
    9943     6487     7065 1
    9944     4132     4945 1
    9945     5417     6536 1
    9946     8077     8616 1
    9947     1963     8098 1
    9948     3783     3924 1
    9949     4093     4975 1
    9950     9561     9762 1
    9951     2919     2362 1
    9952     6134     6548 1
    9953     2720     2799 1
    9954     6118     6138 1
    9955     6452     9396 1
    9956     9889     9906 1
    9957     3307     1799 1
    9958     8796     7898 1
    9959     1008      254 1
    9960     7438     8577 1
    9961     8748     8312 1
    9962     6220     6481 1
    9963     1255      186 1
    9964     3081     2455 1
    9965     3124     2036 1
    9966     8003     8306 1
    9967     7426     8274 1
    9968     3339     2066 1
    9969      753      773 1
    9970     3171     3542 1
    9971     8092     8136 1
    9972     8738     7481 1
    9973     2512     2910 1
    9974     1437      319 1
    9975      595      321 1
    9976     3568     4520 1
    9977    10040    10629 1
    9978     4233     9190 1
    9979     2948     1952 1
    9980      683     1504 1
    9981     4471     4912 1
    9982     4866     4940 1
    9983     4043     5080 1
    9984     7151     8072 1
    9985     1097       59 1
    9986     5759     6190 1
    9987     3764     3962 1
    9988     3053     3420 1
    9989     3861     5287 1
    9990     2736     3375 1
    9991     9436    10314 1
    9992     5565     6234 1
    9993     4241     4994 1
    9994     2693     2978 1
    9995     1222      182 1
    9996      843      261 1
    9997     3899     5158 1
    9998     4383     4738 1
    9999     1191     1200 1
   10000     4099     5079 1
   10001      357     1715 1
   10002     9610     9847 1
   10003     5906     6018 1
   10004     1889     3468 1
   10005     5729     6427 1
   10006     5522     5884 1
   10007     2090     3526 1
   10008     3963     4458 1
   10009     1082     1654 1
   10010     3190     1980 1
   10011     7649     7979 1
   10012     5966     6144 1
   10013     3774     4806 1
   10014     3657     5291 1
   10015     6021     6222 1
   10016     7902     8197 1
   10017     4383     4395 1
   10018      953     1119 1
   10019     2861     3123 1
   10020     5642     6917 1
   10021     9695     9788 1
   10022       52      876 1
   10023     3930     4909 1
   10024     2685     2172 1
   10025     9341    10481 1
   10026     4896     5139 1
   10027     4146     4361 1
   10028     8812     7257 1
   10029     6917     7027 1
   10030     2728     3399 1
   10031     9437    10048 1
   10032    10208    10428 1
   10033     8971    10238 1
   10034     6038     6573 1
   10035     5771     6282 1
   10036     3596     4394 1
   10037     9144     9609 1
   10038     1343      322 1
   10039     3955     4627 1
   10040     2719     2210 1
   10041     2503     2781 1
   10042     9229    10087 1
   10043      628      411 1
   10044     3573     4032 1
   10045       44     1529 1
   10046     4546     4883 1
   10047     4076     4428 1
   10048     9788     9955 1
   10049     7278     7475 1
   10050     4020     4854 1
   10051    10328    10712 1
   10052     2314     2328 1
   10053     7614     8222 1
   10054    10466    10591 1
   10055     5771     6771 1
   10056     1184       64 1
   10057     7880     7950 1
   10058     9791    10041 1
   10059     3189     2260 1
   10060     5063     5168 1
   10061     2951     1960 1
   10062     2631     2401 1
   10063     8335     8397 1
   10064     5933     6328 1
   10065      282       56 1
   10066     7863     8142 1
   10067     5975     6615 1
   10068     4415     5095 1
   10069      862      309 1
   10070     4300     9172 1
   10071     7952     8127 1
   10072     3149     1852 1
   10073     2779     3387 1
   10074     1178     1407 1
   10075      638     1771 1
   10076     6879     6932 1
   10077     2564     2386 1
   10078     9556     9631 1
   10079     6011     6645 1
   10080     3966     4396 1
   10081     4576     4746 1
   10082     7318     8195 1
   10083     5396     6170 1
   10084     2682     2931 1
   10085     3106     1968 1
   10086      647      319 1
   10087     4658     4858 1
   10088      613      168 1
   10089     2914     1990 1
   10090     4176     4602 1
   10091    10637    10713 1
   10092     5772     5837 1
   10093     6554     7070 1
   10094     9166     9993 1
   10095     1965     3540 1
   10096     5985     6762 1
   10097     7380     7425 1
   10098     2994     2457 1
   10099      487     1057 1
   10100     7704     8511 1
   10101     2556     3199 1
   10102     4061     4152 1
   10103     3671     4118 1
   10104     1243     1380 1
   10105     5940     6497 1
   10106       28       72 1
   10107     8125     8667 1
   10108     8984    10270 1
   10109     3677     5140 1
   10110     3746     4349 1
   10111     3325     2213 1
   10112     4365     5119 1
   10113     9649    10613 1
   10114     9486     9596 1
   10115     2657     2051 1
   10116     3768     4341 1
   10117     2693     2343 1
   10118     4292     5327 1
   10119     4587     4622 1
   10120     8263     8334 1
   10121     2427     2244 1
   10122     6384     6471 1
   10123      543     1236 1
   10124     9403    10421 1
   10125     1961     3405 1
   10126     3879     4160 1
   10127     3148     2021 1
   10128     2945     3442 1
   10129     8764     8502 1
   10130     1632     7126 1
   10131     2968     4419 1
   10132     2446     2120 1
   10133     9044     9797 1
   10134     4859     4886 1
   10135     7956     8344 1
   10136     4348     4763 1
   10137       24     1484 1
   10138     9027     9253 1
   10139     1395       58 1
   10140     3822     3940 1
   10141     3895     4667 1
   10142     7682     8641 1
   10143     8908     5904 1
   10144     8863     8880 1
   10145     5982     7141 1
   10146     6868     8270 1
   10147     6125     6799 1
   10148     9038     9405 1
   10149     9905    10506 1
   10150     5424     6214 1
   10151     5385     5555 1
   10152     9211     9940 1
   10153     4242     4839 1
   10154     2679     2417 1
   10155     9194     9270 1
   10156     7750     8505 1
   10157     2765     2969 1
   10158     9197    10621 1
   10159     2973     3455 1
   10160     1260     1593 1
   10161      784     1206 1
   10162     9200     9271 1
   10163     2585     2000 1
   10164     5922     6616 1
   10165     3564     4200 1
   10166     3760     3886 1
   10167      656     1534 1
   10168      674     1513 1
   10169     8342     8667 1
   10170     5920     6387 1
   10171      572      152 1
   10172     6123     6412 1
   10173     3885     5208 1
   10174      919      198 1
   10175     7205     7753 1
   10176     2402     3560 1
   10177     5421     5804 1
   10178     9018     9634 1
   10179     2445     2105 1
   10180    10059    10194 1
   10181     9106    10338 1
   10182     6571     6874 1
   10183      392       87 1
   10184     4202     4685 1
   10185     4940     5170 1
   10186     7488     8595 1
   10187    10077    10651 1
   10188      287     1564 1
   10189     5718     6643 1
   10190     1859     2289 1
   10191      612     1334 1
   10192     1443     1461 1
   10193     8979    10688 1
   10194     1474     1658 1
   10195     3292     2189 1
   10196     8722     7759 1
   10197     9778    10421 1
   10198     1393     1471 1
   10199      519     1250 1
   10200     3117     2116 1
   10201     6774     6975 1
   10202      536     1589 1
   10203     2766     2377 1
   10204     2453     3268 1
   10205     8797     7635 1
   10206     3882     4747 1
   10207     4754     5077 1
   10208     9290    10328 1
   10209     8724     7709 1
   10210      405     1495 1
   10211     4668     4897 1
   10212     2572     2273 1
   10213     7986     8389 1
   10214     4198     4511 1
   10215     4349     4633 1
   10216     5886     6157 1
   10217     4042     5335 1
   10218     7195     7599 1
   10219     1186     1216 1
   10220     3981     4800 1
   10221     4119     4973 1
   10222     5540     6619 1
   10223     3704     4264 1
   10224     5844     6646 1
   10225     3747     5257 1
   10226     6419     6774 1
   10227     5659     7080 1
   10228     6574     6739 1
   10229     8934     9577 1
   10230     9242    10146 1
   10231     5999     7035 1
   10232    10137    10609 1
   10233     4412     4960 1
   10234     7257     7715 1
   10235     7452     7772 1
   10236     3186     3234 1
   10237      980      751 1
   10238     5680     6544 1
   10239     3939     4134 1
   10240     3866     4302 1
   10241     3566     5127 1
   10242     9632    10460 1
   10243     9905    10445 1
   10244     7574     8106 1
   10245     8745     8926 1
   10246     9566     9983 1
   10247     5414     6695 1
   10248     6785     7105 1
   10249     6894     6911 1
   10250     6229     6702 1
   10251     2348     2044 1
   10252     7463     8418 1
   10253     7628     8431 1
   10254     7920     8146 1
   10255     3631     4032 1
   10256     7869     8248 1
   10257     9585     9827 1
   10258     9189    10330 1
   10259      805     1308 1
   10260     2401     3260 1
   10261     5521     5976 1
   10262     9390     9562 1
   10263     5632     6385 1
   10264    10106    10541 1
   10265     6188     6850 1
   10266     7587     8197 1
   10267     7436     8175 1
   10268     3613     5298 1
   10269     4433     4907 1
   10270      729     1515 1
   10271     2695     1998 1
   10272     8908     8109 1
   10273     2813     2467 1
   10274     8952     9166 1
   10275    10140    10438 1
   10276     5702     6434 1
   10277    10213    10479 1
   10278     2194     2260 1
   10279     8591     8610 1
   10280     4422     4725 1
   10281     3887     4163 1
   10282     9182    10499 1
   10283     9555    10488 1
   10284     3766     4697 1
   10285     9987    10615 1
   10286     9668    10043 1
   10287    10346    10467 1
   10288      673      708 1
   10289      534      361 1
   10290     7484     8481 1
   10291     4593     4923 1
   10292    10059    10183 1
   10293     3211     3316 1
   10294     3032     2071 1
   10295     2737     2855 1
   10296     8722     7400 1
   10297     4498     4926 1
   10298      789     1453 1
   10299     3996     4187 1
   10300     8856     8920 1
   10301     5139     5265 1
   10302     8960     9004 1
   10303     8806     8678 1
   10304     3730     4964 1
   10305     8046     8583 1
   10306     9738    10281 1
   10307     5903     6600 1
   10308     2631     2040 1
   10309     7949     8176 1
   10310     4723     4798 1
   10311     9533     9725 1
   10312     1064      371 1
   10313     4412     4474 1
   10314     9420     9898 1
   10315     3923     4071 1
   10316     4280     5036 1
   10317     8029     8244 1
   10318     9377     9400 1
   10319     4827     5162 1
   10320     8787     8429 1
   10321     2929     1995 1
   10322    10022    10580 1
   10323     2338     3516 1
   10324     9962    10460 1
   10325     2828     2064 1
   10326     7341     8408 1
   10327     1026     1273 1
   10328     6523     7022 1
   10329     5862     7086 1
   10330     3898     4229 1
   10331     2515     3539 1
   10332      729      754 1
   10333     1795     7294 1
   10334     2527     3213 1
   10335     6071    10029 1
   10336     1137      102 1
   10337    10333    10616 1
   10338     2973     3291 1
   10339     4123     4592 1
   10340     3950     4676 1
   10341     1798     1817 1
   10342     8552     8675 1
   10343     4291     4637 1
   10344     7513     8490 1
   10345     4013     4894 1
   10346     9056     9489 1
   10347     2797     3419 1
   10348     2593     1834 1
   10349       50      500 1
   10350     2882     1839 1
   10351     9240    10307 1
   10352     9749     9922 1
   10353     9373    10493 1
   10354     6296     6349 1
   10355    10628    10677 1
   10356     9154     9850 1
   10357     2386     3273 1
   10358     7281     7469 1
   10359      979     1314 1
   10360     9797    10122 1
   10361     7171     7444 1
   10362    10538    10717 1
   10363     7992     8054 1
   10364     5822     6666 1
   10365     3965     5109 1
   10366     7147     8199 1
   10367      490      267 1
   10368     4206     4662 1
   10369     2699     2874 1
   10370     7476     8480 1
   10371     8834     8564 1
   10372     7383     7775 1
   10373     3298     3330 1
   10374     9116    10164 1
   10375     3839     4371 1
   10376     3392     3412 1
   10377        6     1644 1
   10378     4132     4981 1
   10379     4113     4720 1
   10380     3324     2186 1
   10381     4128     4987 1
   10382     8447     8930 1
   10383     1254     1375 1
   10384     8175     8365 1
   10385     6003     6933 1
   10386     4188     4967 1
   10387     8988     9973 1
   10388     9293    10617 1
   10389     5671     6670 1
   10390     2400     2010 1
   10391     1052      160 1
   10392     2809     2342 1
   10393     6326     6927 1
   10394     6052     6148 1
   10395     3101     2080 1
   10396       84      222 1
   10397      459      203 1
   10398     2692     2453 1
   10399     7344     7602 1
   10400     5850     6632 1
   10401     5373     6125 1
   10402     7729     7972 1
   10403     7186     8679 1
   10404     2382     1820 1
   10405     8178     8392 1
   10406     8909     7926 1
   10407     1525     1645 1
   10408     7656     8497 1
   10409      516     1655 1
   10410     7466     9704 1
   10411     7986     8304 1
   10412     9174     9891 1
   10413     5086     5138 1
   10414     1868     1908 1
   10415     2014     2068 1
   10416     3210     3236 1
   10417      881     1096 1
   10418     4265     4405 1
   10419     9988    10251 1
   10420     5744     6837 1
   10421      482     1510 1
   10422     2870     2351 1
   10423     7734     8466 1
   10424     4781     4845 1
   10425     5767     6337 1
   10426     8406     8646 1
   10427      517     1189 1
   10428     9330     9836 1
   10429     5408     6393 1
   10430     9974    10184 1
   10431     2579     3181 1
   10432     8900     8551 1
   10433     2940     2424 1
   10434     5106     5311 1
   10435     2335     7831 1
   10436     8272     8639 1
   10437     8365     8392 1
   10438     1232     1548 1
   10439     5781     6281 1
   10440     7872     8273 1
   10441     6250     6758 1
   10442     3567     3645 1
   10443     2787     2071 1
   10444     9298     9448 1
   10445     7588     7670 1
   10446     8239     8596 1
   10447     7238     7672 1
   10448     7403     7955 1
   10449     5254     9608 1
   10450     9238     9264 1
   10451     2076     3490 1
   10452     2252     3516 1
   10453     4942     5489 1
   10454     9065     9834 1
   10455     7456     7674 1
   10456     6341     6558 1
   10457     1494      150 1
   10458     7701     8137 1
   10459     6090     6432 1
   10460     2369     3456 1
   10461     8549     8598 1
   10462     9282     9911 1
   10463     4075     5202 1
   10464     3941     4129 1
   10465     3108     2466 1
   10466     9252     9259 1
   10467     9382     9799 1
   10468     5987     6626 1
   10469     5747     6609 1
   10470     5488     5606 1
   10471     5510     6865 1
   10472     4044     4103 1
   10473     6164     7626 1
   10474     4259     4353 1
   10475      790     1229 1
   10476     2013     3460 1
   10477     1279      361 1
   10478     2738     3295 1
   10479     4101     4615 1
   10480     7322     8371 1
   10481      386     1566 1
   10482     1791     2087 1
   10483      950     1707 1
   10484        5     1558 1
   10485     5832     7126 1
   10486     7818     8565 1
   10487     2424     3284 1
   10488     2928     2062 1
   10489     8845     8355 1
   10490     6097     6980 1
   10491     2364     2024 1
   10492     7628     8205 1
   10493     3809     5149 1
   10494    10202    10243 1
   10495     6484     6715 1
   10496     2535     2925 1
   10497     9803    10373 1
   10498     1502       97 1
   10499     6851     6852 1
   10500     3651     3923 1
   10501     6355     7130 1
   10502     3807     5191 1
   10503     8098     8661 1
   10504     5601     6017 1
   10505     5858     6082 1
   10506     8078     8297 1
   10507     3948     4812 1
   10508     3387     7300 1
   10509     4361    10027 1
   10510     7387     8708 1
   10511     7192     7642 1
   10512     5840     6602 1
   10513     9482    10186 1
   10514     2246     3558 1
   10515     2930     2073 1
   10516      778       89 1
   10517     5506     5933 1
   10518     5546     7093 1
   10519     5711     5837 1
   10520     2568     2374 1
   10521      957      720 1
   10522     1857     3374 1
   10523     1077     1546 1
   10524     9319     9344 1
   10525     2734     2751 1
   10526    10259    10503 1
   10527     2685     2780 1
   10528     9968    10394 1
   10529     8933     9643 1
   10530     8400    10015 1
   10531      466      104 1
   10532     9677    10011 1
   10533     7708     8374 1
   10534     6516     6894 1
   10535      447     1101 1
   10536      598     1409 1
   10537     6389     6668 1
   10538     8745     8368 1
   10539     9146     9813 1
   10540     2406     3162 1
   10541      954     1644 1
   10542     6304     6589 1
   10543      698      145 1
   10544     2391     2393 1
   10545     8933     9682 1
   10546     3875     5024 1
   10547     7537     8343 1
   10548     3583     4065 1
   10549     9566    10203 1
   10550     7787     8558 1
   10551     2345     3148 1
   10552     1949     3499 1
   10553     3790     4618 1
   10554      857      494 1
   10555     5479     6762 1
   10556      799      204 1
   10557     7556     7621 1
   10558     8822     8336 1
   10559     3866     4430 1
   10560      336     1490 1
   10561      994      720 1
   10562     5452     6263 1
   10563     1824     3358 1
   10564     9012     9120 1
   10565     5523     5916 1
   10566     1142      284 1
   10567     4160     4537 1
   10568     9111     9504 1
   10569     3090     2065 1
   10570      470     1735 1
   10571      733     1283 1
   10572     1906     3363 1
   10573     2626     3026 1
   10574     5771     5991 1
   10575     4847     5208 1
   10576     2069     4920 1
   10577     2324     2262 1
   10578      905      560 1
   10579     2660     3291 1
   10580     4853     5036 1
   10581     7230     8241 1
   10582     4287     4795 1
   10583      869      954 1
   10584      947     1461 1
   10585     2872     1881 1
   10586     3047     3089 1
   10587     2549     3067 1
   10588     9505    10132 1
   10589     7853     8502 1
   10590     2685     3245 1
   10591     1035     1081 1
   10592     7399     7474 1
   10593     1206     1511 1
   10594     5727     6565 1
   10595     6100     7014 1
   10596     2845     1824 1
   10597     2706     2193 1
   10598     2731     2374 1
   10599     9432     9594 1
   10600     1787     3427 1
   10601     2149     3534 1
   10602     5638     6506 1
   10603     4095     4109 1
   10604     1207      346 1
   10605     9725     9843 1
   10606      532       96 1
   10607     7312     8311 1
   10608     3779     4925 1
   10609     4100     4374 1
   10610     5370     6152 1
   10611     1774     1524 1
   10612     9542     9934 1
   10613     9078     9931 1
   10614     8968     9967 1
   10615     7696     8214 1
   10616      690     1105 1
   10617     6345     7073 1
   10618     7689     7705 1
   10619     5797     5820 1
   10620     7739     8164 1
   10621     3862     4933 1
   10622     2772     3518 1
   10623     4327     4896 1
   10624      741      603 1
   10625     5413     5853 1
   10626     3727     4741 1
   10627     8945    10034 1
   10628     7253     8350 1
   10629     8947    10342 1
   10630     5994     6042 1
   10631     3851     4711 1
   10632     2371     2481 1
   10633     3905     4565 1
   10634     1803     2284 1
   10635     9578     9635 1
   10636     7584     8301 1
   10637     7258     8573 1
   10638     2518     1785 1
   10639     9555     9947 1
   10640     9432    10695 1
   10641       23      837 1
   10642     5897     6171 1
   10643     9584    10392 1
   10644     7793     7860 1
   10645      887      698 1
   10646     5525     6526 1
   10647     9495    10009 1
   10648     9475    10569 1
   10649     7944     9422 1
   10650     4424     4686 1
   10651     9314     9577 1
   10652     9235    10034 1
   10653     9756    10630 1
   10654     1218     1597 1
   10655     9233    10694 1
   10656     7221     8072 1
   10657     5798     6146 1
   10658     9600    10419 1
   10659     8777     8582 1
   10660     6532     6933 1
   10661     8852     7424 1
   10662     1363     1371 1
   10663     1054     1467 1
   10664     6460     7052 1
   10665     2794     2177 1
   10666     7283     8022 1
   10667     8956    10016 1
   10668     7888     8417 1
   10669     5695     6434 1
   10670      742     1481 1
   10671     7553     7624 1
   10672     2563     2037 1
   10673     7371     7761 1
   10674     3822     4787 1
   10675     9951    10122 1
   10676     9201     9289 1
   10677     8006     8461 1
   10678     1455     1475 1
   10679     9180    10323 1
   10680      831      507 1
   10681     2789     3179 1
   10682     9179     9599 1
   10683     3628     3670 1
   10684      640     1570 1
   10685     9891    10532 1
   10686     1540      180 1
   10687     1048     1314 1
   10688     2359     3348 1
   10689      311     1745 1
   10690     8964     9984 1
   10691      482     1242 1
   10692     3662     4704 1
   10693     9032     9350 1
   10694     3593     5247 1
   10695     7673     7687 1
   10696     1898     3355 1
   10697     2952     3411 1
   10698     3341     2122 1
   10699     5435     6173 1
   10700     9185     9604 1
   10701     7667     7914 1
   10702     9116     9777 1
   10703     7394     8156 1
   10704     4623     5330 1
   10705     8256     8677 1
   10706     1602      236 1
   10707     1390     1633 1
   10708      961     3699 1
   10709     2959     2277 1
   10710      563     1728 1
   10711     1356      220 1
   10712      668      403 1
   10713      494     1648 1
   10714     2504     2616 1
   10715      942      966 1
   10716     2042     2162 1
   10717     6717     6977 1
   10718     4058     4740 1
   10719     7449     7915 1
   10720     9464    10571 1
   10721     3772     5236 1
   10722     9862    10381 1
   10723    10055    10455 1
   10724     9015    10342 1
   10725     3806     4154 1
   10726     2736     3152 1
   10727     3562     3780 1
   10728     6373     6545 1
   10729     4431     4651 1
   10730     8981     9128 1
   10731     3073     2240 1
   10732     7991     8071 1
   10733     8889     7378 1
   10734      935       99 1
   10735     4566     5003 1
   10736     9969    10246 1
   10737      846     1748 1
   10738     2593     3208 1
   10739     7645     8063 1
   10740     9241    10628 1
   10741     6066     7024 1
   10742     9401     9839 1
   10743       37     1651 1
   10744      445       68 1
   10745     2491     3314 1
   10746      812      324 1
   10747     9040    10614 1
   10748     3694     4591 1
   10749     9181    10621 1
   10750     1129     1446 1
   10751     1811     3400 1
   10752     6280     6425 1
   10753     5946     6646 1
   10754     7309     8323 1
   10755     6165     6883 1
   10756     9207    10285 1
   10757     7366     7666 1
   10758     4179     5116 1
   10759     7538     8651 1
   10760     3131     3393 1
   10761     5818     5932 1
   10762     2513     3299 1
   10763     2829     3096 1
   10764     8237     8669 1
   10765      688     5944 1
   10766     9450    10054 1
   10767     5803     7097 1
   10768     5598     6021 1
   10769     6568     6628 1
   10770     4584     4773 1
   10771     5361     5970 1
   10772     7946     8183 1
   10773     4835     5148 1
   10774     8251     8593 1
   10775       10     1359 1
   10776     2368     1785 1
   10777     1905     3404 1
   10778     2765     3301 1
   10779     2621     1962 1
   10780     2555     3469 1
   10781      885     1629 1
   10782     9391     9534 1
   10783     7394     8536 1
   10784     9528     9768 1
   10785     3169     1990 1
   10786     2849     2143 1
   10787     1068     1660 1
   10788     3787     4683 1
   10789     1800     2010 1
   10790    10005    10524 1
   10791     3806     4030 1
   10792     3200     1912 1
   10793     3844     4871 1
   10794     1711     1760 1
   10795     4269     4929 1
   10796     5491     6021 1
   10797     5672     6634 1
   10798     4227     4356 1
   10799     2639     1182 1
   10800     9450     9588 1
   10801     4808     4933 1
   10802     9233    10372 1
   10803     1033     1370 1
   10804     9326    10050 1
   10805    10091    10332 1
   10806     7902     8601 1
   10807     9890    10403 1
   10808     9066    10357 1
   10809     1016     1309 1
   10810     5467     6682 1
   10811     5620     5994 1
   10812     2308     2385 1
   10813     8997    10196 1
   10814     7291     7881 1
   10815     9269     9951 1
   10816     7832     8550 1
   10817     1029      295 1
   10818     2165     2189 1
   10819     2712     1851 1
   10820      313     1527 1
   10821     2700     2951 1
   10822     3805     5040 1
   10823     8022     8293 1
   10824    10083    10423 1
   10825     1320     1704 1
   10826     7861     8408 1
   10827      486     1088 1
   10828     3892     3996 1
   10829     5591     6501 1
   10830     1193     1526 1
   10831     3057     3340 1
   10832     9136     9264 1
   10833     3135     3419 1
   10834      434     1211 1
   10835     4173     4175 1
   10836     3690     3710 1
   10837      665     5992 1
   10838     7216     8295 1
   10839     1379      267 1
   10840      973      407 1
   10841     9144     9716 1
   10842     1036     1337 1
   10843     7351     8201 1
   10844      965      387 1
   10845    10092    10617 1
   10846     7930     8380 1
   10847     2414     2022 1
   10848     5843     6451 1
   10849      689     1402 1
   10850     7829     8321 1
   10851     8297     8538 1
   10852     4277     4669 1
   10853     5524     6777 1
   10854     4287     4396 1
   10855     9863    10688 1
   10856     3727     4898 1
   10857     7931     8110 1
   10858     9055     9597 1
   10859     7627     8236 1
   10860      596     1277 1
   10861     3159     9069 1
   10862      690      615 1
   10863     3649     4661 1
   10864     6891     7019 1
   10865     5408     5636 1
   10866     6309     6721 1
   10867     2489     3148 1
   10868     2746     3067 1
   10869     9013     9450 1
   10870      488     1658 1
   10871     9306     9593 1
   10872     3072     3251 1
   10873     9479    10178 1
   10874     2888     2130 1
   10875      552     1310 1
   10876     8312     8371 1
   10877     1709     1770 1
   10878     9782    10181 1
   10879     4335     4804 1
   10880      839      426 1
   10881     2489     3196 1
   10882     7182     7377 1
   10883     2857     1251 1
   10884     2328     2006 1
   10885     8837     7329 1
   10886     5613     5690 1
   10887     2405     3184 1
   10888     2907     3137 1
   10889     2459     2173 1
   10890     5921     6269 1
   10891     4201     5242 1
   10892      531     1407 1
   10893     2438     1901 1
   10894     4199     5302 1
   10895     9056     9645 1
   10896     8854     8098 1
   10897      971      670 1
   10898     9723    10138 1
   10899     2947     1884 1
   10900     6746     7140 1
   10901     5377     5556 1
   10902     3580     4327 1
   10903     6007     7002 1
   10904     8059     8237 1
   10905     2371     2280 1
   10906     2523     1783 1
   10907     1301     1492 1
   10908    10137    10280 1
   10909     6119     7045 1
   10910     9142     9844 1
   10911     6706     6749 1
   10912     7605     8044 1
   10913     7313     7826 1
   10914    10084    10609 1
   10915     6824     7027 1
   10916     7339     8067 1
   10917      995      250 1
   10918      948     1591 1
   10919     2229     3365 1
   10920     6131     6912 1
   10921     4754     5242 1
   10922     7383     7958 1
   10923     8044     8115 1
   10924     4429     5106 1
   10925     7746     7924 1
   10926     5621     6743 1
   10927     5461     5643 1
   10928     2534     3473 1
   10929     7359     8055 1
   10930     8027     8376 1
   10931     1116     1677 1
   10932     3154     2230 1
   10933     5968     6528 1
   10934     6388     6637 1
   10935     9760    10651 1
   10936     7736     8426 1
   10937     8731     7591 1
   10938     7834     8668 1
   10939     9460     9534 1
   10940     1244       73 1
   10941      556     1378 1
   10942     4190     4829 1
   10943     6184     6296 1
   10944      695     6571 1
   10945    10563    10584 1
   10946      606     1539 1
   10947     9593    10650 1
   10948     6971     6991 1
   10949     5627     6233 1
   10950     2666     4230 1
   10951      454     1182 1
   10952     2912     3532 1
   10953     1232      216 1
   10954     4155     4350 1
   10955     1351      312 1
   10956     6026     7030 1
   10957     1057      395 1
   10958     9853     9949 1
   10959      940     1225 1
   10960      854      109 1
   10961     2680     2183 1
   10962      535       83 1
   10963     6087     6192 1
   10964     3110     2308 1
   10965     3876     4947 1
   10966     6161     7026 1
   10967     9260    10234 1
   10968     3818     4341 1
   10969      888      973 1
   10970     2145     2290 1
   10971      700     1662 1
   10972     1434     1629 1
   10973     7534     7818 1
   10974     1494     1684 1
   10975     5725     6164 1
   10976     7868     8217 1
   10977     9077     9817 1
   10978     7159     7932 1
   10979      727      527 1
   10980     4645     5115 1
   10981      948      740 1
   10982     1929     3506 1
   10983     7015     7084 1
   10984     7166     8221 1
   10985     9335     9951 1
   10986     1006      191 1
   10987      895      557 1
   10988     9621    10088 1
   10989      660      271 1
   10990     5929     6776 1
   10991     9630    10344 1
   10992     6348     7097 1
   10993     9116    10414 1
   10994     2697     3515 1
   10995     5692     6694 1
   10996     2034     7809 1
   10997     3581     3962 1
   10998     2740     1788 1
   10999     7208     7996 1
   11000      828      405 1
   11001     2804     3407 1
   11002       51     1281 1
   11003     9829    10337 1
   11004     3269     1804 1
   11005     3178     3256 1
   11006     7473     7880 1
   11007     5565     6368 1
   11008     6479     6872 1
   11009     8837     7445 1
   11010     4530     5136 1
   11011     1779     1561 1
   11012     4049     5227 1
   11013     2871     1986 1
   11014     3612     4002 1
   11015     8843     7521 1
   11016     4291     4631 1
   11017       27      952 1
   11018     6273     6625 1
   11019     9946    10320 1
   11020     4379     5264 1
   11021     9722    10445 1
   11022     4449     5089 1
   11023     7789     8456 1
   11024     9094     9995 1
   11025    10075    10495 1
   11026     9794    10427 1
   11027     8060     8314 1
   11028     5537     6973 1
   11029     7565     8557 1
   11030     6706     6936 1
   11031     3662     4690 1
   11032     1948     3991 1
   11033     9265     9540 1
   11034     5493     6512 1
   11035     9509     9952 1
   11036     5091     5259 1
   11037     4553     5216 1
   11038     2096     2103 1
   11039     3126     2124 1
   11040     3930     4913 1
   11041     3656     4719 1
   11042     4178     5239 1
   11043     5619     5841 1
   11044     2476     3446 1
   11045     3659     4503 1
   11046     4354     4391 1
   11047    10192    10548 1
   11048     7512     7794 1
   11049      801      626 1
   11050     2589     2814 1
   11051      709      811 1
   11052     2649     3320 1
   11053     7272     8037 1
   11054     4613     4865 1
   11055     6126     9139 1
   11056     2555     3226 1
   11057     3902     4908 1
   11058     3194     2165 1
   11059     3896     4938 1
   11060     2429     2124 1
   11061     6136     6804 1
   11062     3046     3377 1
   11063     2155     2253 1
   11064     6001     6024 1
   11065     9405    10652 1
   11066     2491     3423 1
   11067     8016     8211 1
   11068     5682     7905 1
   11069     4656     5187 1
   11070     6059     6246 1
   11071     9096    10084 1
   11072     1065      244 1
   11073     1229     1696 1
   11074     6214     6537 1
   11075    10424    10618 1
   11076     8944    10182 1
   11077     3720     4039 1
   11078     9218    10263 1
   11079     5962     6987 1
   11080     3238     2078 1
   11081      558     1236 1
   11082     9142    10590 1
   11083     5668     6096 1
   11084     6784     7115 1
   11085      700      467 1
   11086     6550     6612 1
   11087     9069     9966 1
   11088     2490     3455 1
   11089     2196     3373 1
   11090      799      368 1
   11091     9021    10622 1
   11092     3685     5148 1
   11093     4831     5166 1
   11094     1624     6243 1
   11095     1039      320 1
   11096     8721     7258 1
   11097     9058     9418 1
   11098      438      461 1
   11099     6146     6560 1
   11100     7514     7843 1
   11101     4653     4702 1
   11102     1950     3460 1
   11103     4026     5049 1
   11104      346      133 1
   11105     3644     3788 1
   11106     4447    10565 1
   11107     2493     3139 1
   11108     4301     4636 1
   11109     3843     9547 1
   11110     2753     3416 1
   11111     7300     8200 1
   11112    10284    10327 1
   11113     4062     4282 1
   11114     4215     4283 1
   11115     5514     6581 1
   11116     5687     5819 1
   11117     3036     2299 1
   11118      750     1704 1
   11119     6496     6916 1
   11120     7551     8372 1
   11121     7423     8291 1
   11122     5489     6386 1
   11123     8814     7415 1
   11124     9126     9948 1
   11125     2159     3535 1
   11126     8058     8155 1
   11127     1524     1650 1
   11128     4270     4304 1
   11129     5541     6147 1
   11130     6148     6514 1
   11131     2679     1911 1
   11132      533     1271 1
   11133      851     4749 1
   11134     2535     3076 1
   11135     1029     1215 1
   11136      723     1471 1
   11137     6280     6633 1
   11138     7227     7836 1
   11139     4355     4590 1
   11140     2350     2362 1
   11141     8901     7264 1
   11142     2442     1799 1
   11143     9404     9806 1
   11144     1213     1278 1
   11145     5839     5902 1
   11146     4719     5101 1
   11147     5548     6758 1
   11148      726      592 1
   11149     6877     6909 1
   11150     5722     6587 1
   11151     9549     9551 1
   11152     1186     1248 1
   11153     4362     4768 1
   11154     2632     3177 1
   11155     5884     6991 1
   11156     9103     9568 1
   11157     7946     8670 1
   11158     8784     8498 1
   11159     8209     8213 1
   11160      684     1777 1
   11161     9252     9473 1
   11162     6037     6712 1
   11163     3838     3930 1
   11164     6585     6680 1
   11165     2798     1418 1
   11166     8110     8653 1
   11167     7110     7550 1
   11168      627     1191 1
   11169     2777     2342 1
   11170     2985     2133 1
   11171     7403     7523 1
   11172     2174     3498 1
   11173     8779     8845 1
   11174     7667     8474 1
   11175      944      804 1
   11176     2791     1860 1
   11177      406     3906 1
   11178     9417    10346 1
   11179     5456     7077 1
   11180     4452     5163 1
   11181       49       52 1
   11182     9093     9301 1
   11183     3900     4485 1
   11184      698      588 1
   11185     9108     9965 1
   11186     6764     6921 1
   11187     8013     8672 1
   11188     8928     8440 1
   11189     3878     4607 1
   11190     7837     8030 1
   11191     8029     8225 1
   11192     6042     6442 1
   11193     1912     3349 1
   11194     6631     6999 1
   11195     1053      376 1
   11196     7875     8257 1
   11197     9564    10341 1
   11198     9151    10173 1
   11199     1489     1563 1
   11200    10484    10641 1
   11201     8805     7179 1
   11202     2566     2222 1
   11203     5543     6520 1
   11204      879     1227 1
   11205     1622      248 1
   11206     5585     6413 1
   11207     1751       54 1
   11208      830     1676 1
   11209     8990    10337 1
   11210     3611     5031 1
   11211     5449     5891 1
   11212     2878     1870 1
   11213     2514     2123 1
   11214     2738     7323 1
   11215     6715     9225 1
   11216     7902     8170 1
   11217     9158     9285 1
   11218     4554     4979 1
   11219      437     1057 1
   11220     4184     4411 1
   11221     1404     1525 1
   11222     8777     8033 1
   11223     9382     9992 1
   11224     1516      220 1
   11225     9234     9655 1
   11226     5179     5199 1
   11227     6539     7038 1
   11228     9199     9794 1
   11229     7212     8072 1
   11230     5969     6902 1
   11231     3629    10055 1
   11232     8211     8617 1
   11233     8053     8341 1
   11234     5475     6544 1
   11235     5546     5868 1
   11236     8116     8294 1
   11237     9176    10315 1
   11238       15     1714 1
   11239     9221    10244 1
   11240    10143    10708 1
   11241     9178     9573 1
   11242     4037     4354 1
   11243      700      748 1
   11244     3647     4369 1
   11245     8976    10471 1
   11246     6228     7020 1
   11247     7601     8436 1
   11248      871       77 1
   11249     8308     8492 1
   11250     2520     2590 1
   11251     3127     2153 1
   11252     1343      196 1
   11253     2668     2061 1
   11254     4125     4480 1
   11255      671     1348 1
   11256     5823     7083 1
   11257     6115     7053 1
   11258     7517     7718 1
   11259     2927     1942 1
   11260     8806     7798 1
   11261     1424     1697 1
   11262     5886     5965 1
   11263      369       88 1
   11264      297     1757 1
   11265     6325     7119 1
   11266     6293     6500 1
   11267     2751     3412 1
   11268     7952     8023 1
   11269     9372    10474 1
   11270     1841     2276 1
   11271     3769     4695 1
   11272     2532     2483 1
   11273     7710     8561 1
   11274     3769     3815 1
   11275     5810     5983 1
   11276     9633    10246 1
   11277     9179    10008 1
   11278      490      124 1
   11279     2203     2233 1
   11280     3742     5181 1
   11281     4599     4810 1
   11282     5366     5574 1
   11283     3289     4688 1
   11284     8106     8430 1
   11285     2795     2965 1
   11286      316     1768 1
   11287      866      785 1
   11288     7512     7789 1
   11289     5779     6597 1
   11290     2607     3161 1
   11291      814     1171 1
   11292     1205     1697 1
   11293      828     1095 1
   11294     3668     3866 1
   11295     6126     7100 1
   11296     9403    10661 1
   11297     7151     7750 1
   11298     2864     2460 1
   11299     8814     8705 1
   11300     9490    10057 1
   11301     1051     1300 1
   11302     5696     6027 1
   11303     3491     3550 1
   11304     2414     2045 1
   11305     7706     7723 1
   11306     7513     8212 1
   11307     9842    10287 1
   11308     3057     2314 1
   11309     5573     7134 1
   11310     5826     6066 1
   11311     4147     4517 1
   11312     8789     6615 1
   11313    10079    10143 1
   11314     9758     9771 1
   11315      534     1549 1
   11316     4348     4652 1
   11317     2779     2451 1
   11318     2865     7377 1
   11319     1047      178 1
   11320     6202     6519 1
   11321     2739     2895 1
   11322     5618     6215 1
   11323     3606     3632 1
   11324      913     1629 1
   11325     5461     6561 1
   11326     9883    10558 1
   11327      576      374 1
   11328     3859     4057 1
   11329     7188     7271 1
   11330    10061    10187 1
   11331     9920    10136 1
   11332     3988     5239 1
   11333     5877     6614 1
   11334    10186    10268 1
   11335     4268     5123 1
   11336     7221     8152 1
   11337     1491      242 1
   11338     2995     3160 1
   11339     8904     7438 1
   11340     8919     8021 1
   11341     3992     4526 1
   11342     9029     9311 1
   11343     4465     5182 1
   11344     9376    10000 1
   11345     9672     9697 1
   11346     1801     2183 1
   11347     3853     4596 1
   11348     3077     2272 1
   11349     2365     7831 1
   11350     4005     4424 1
   11351     3993     5114 1
   11352     7529     8716 1
   11353     9727     9809 1
   11354     2306     1949 1
   11355     1391     1676 1
   11356     6031     6140 1
   11357     5423     5829 1
   11358      870      211 1
   11359     3886     4734 1
   11360     8893     8618 1
   11361     9735    10084 1
   11362     5503     6744 1
   11363     4319     4413 1
   11364     9777    10362 1
   11365     1848     1892 1
   11366     3155     2118 1
   11367      574      585 1
   11368     2998     3442 1
   11369     9911    10088 1
   11370     9772    10540 1
   11371     5924     7088 1
   11372      312      394 1
   11373     7292     8017 1
   11374     4074     4212 1
   11375     2375     2234 1
   11376     9084    10252 1
   11377     9134    10264 1
   11378      304     1719 1
   11379     5354     6067 1
   11380     2842     2220 1
   11381     8744     7210 1
   11382     7710     8525 1
   11383     9875     9927 1
   11384      831      358 1
   11385     9076     9982 1
   11386     7401     7991 1
   11387     1030      803 1
   11388     9497    10197 1
   11389     9598    10614 1
   11390     4074     4680 1
   11391      891      634 1
   11392     5468     5567 1
   11393     3787     4731 1
   11394     8476     8497 1
   11395     2730     3040 1
   11396     6597     6978 1
   11397      959      800 1
   11398     9743     9902 1
   11399     1314     6644 1
   11400     6269     6556 1
   11401      705      495 1
   11402     3038     3053 1
   11403     4159     4545 1
   11404     7426     8427 1
   11405     8781     8144 1
   11406     4376     9226 1
   11407      906     1221 1
   11408     2509     2885 1
   11409     5683     7001 1
   11410     7246     7609 1
   11411     2867     3345 1
   11412     9001     9409 1
   11413     4465     5030 1
   11414     3327     3483 1
   11415      502     1777 1
   11416     6833     6931 1
   11417     7251     8002 1
   11418     5534     5901 1
   11419     2844     2848 1
   11420     9351    10530 1
   11421       10      448 1
   11422     2778     3550 1
   11423     2547     2077 1
   11424     4254     5046 1
   11425     5779     6434 1
   11426     7215     8534 1
   11427     5411     6868 1
   11428     6145     6866 1
   11429     3736     4911 1
   11430     7051     7099 1
   11431     3858     4659 1
   11432     3659     4655 1
   11433     6596     6910 1
   11434     9377    10309 1
   11435     2813     3001 1
   11436      938      241 1
   11437     5098     5226 1
   11438     7605     7787 1
   11439     2221     2243 1
   11440     7600    10032 1
   11441     1292      220 1
   11442     8923     7359 1
   11443     1259      200 1
   11444     5443     5859 1
   11445     4375     4991 1
   11446    10111    10511 1
   11447     2594     3543 1
   11448      859      585 1
   11449     1630      167 1
   11450     5630     7027 1
   11451     6725    10537 1
   11452     3655     3935 1
   11453      881      571 1
   11454     4317     5259 1
   11455     3659     4744 1
   11456     9401     9586 1
   11457     8985    10562 1
   11458     9060    10684 1
   11459     4089     4294 1
   11460     6721     6862 1
   11461     3750     4573 1
   11462     5474     6019 1
   11463     1651      193 1
   11464     4305     5103 1
   11465     2358     3324 1
   11466     7113     7117 1
   11467     7502     8428 1
   11468      466     1500 1
   11469     2807     2056 1
   11470     8771     8836 1
   11471     5928     6937 1
   11472     1276     1450 1
   11473     3625     4739 1
   11474     7897     7918 1
   11475     7754     8181 1
   11476     9162    10060 1
   11477     8420     8569 1
   11478     3768     4198 1
   11479     3689     4387 1
   11480     5604     6930 1
   11481     3691     4293 1
   11482     4443     5193 1
   11483     1334      422 1
   11484     9537     9964 1
   11485      556     1735 1
   11486     2521     1931 1
   11487      734     1068 1
   11488     8991    10447 1
   11489     9944    10336 1
   11490     2839     3252 1
   11491     6534     6649 1
   11492     1401     1559 1
   11493     9621    10170 1
   11494     5986     6810 1
   11495     8110     8717 1
   11496     9613     9808 1
   11497     2437     3546 1
   11498     8893     7266 1
   11499     3051     3432 1
   11500      598      329 1
   11501     9667    10012 1
   11502     9503     9895 1
   11503     8814     8611 1
   11504     8906     8348 1
   11505     5720     6635 1
   11506     2432     2221 1
   11507     1320     1546 1
   11508     6289     6902 1
   11509     1518     1584 1
   11510     5659     6134 1
   11511     4136     5248 1
   11512     9298    10007 1
   11513     6415     6902 1
   11514     6078     6631 1
   11515     1809     2084 1
   11516      300     1569 1
   11517     8820     8291 1
   11518     1822     2256 1
   11519     4541     4566 1
   11520     6431     7022 1
   11521     2281     3549 1
   11522     9112    10284 1
   11523       31      164 1
   11524     7146     7727 1
   11525     9304     9741 1
   11526     9071     9889 1
   11527     2956     3379 1
   11528     5651     6391 1
   11529     7363     7726 1
   11530     5533     6529 1
   11531     3019     2202 1
   11532     9655     9841 1
   11533     1773      219 1
   11534     8925     8194 1
   11535     5418     6212 1
   11536     9320     9943 1
   11537     6597     7101 1
   11538     2974     3471 1
   11539     9080     9960 1
   11540     4329     4633 1
   11541     5737     5998 1
   11542     3467     7809 1
   11543     2819     2394 1
   11544     6186     7034 1
   11545     9293    10654 1
   11546     9516    10481 1
   11547     7798     8214 1
   11548     4317     5272 1
   11549     5440     5482 1
   11550     7578     8682 1
   11551     9509    10355 1
   11552     6004     6107 1
   11553     2578     2927 1
   11554     3800     4941 1
   11555     2603     2957 1
   11556     9476    10530 1
   11557     3687     4921 1
   11558     4214     9741 1
   11559     6351     6774 1
   11560     9101    10278 1
   11561     2878     2377 1
   11562     3579     4225 1
   11563     7895     8439 1
   11564     3046     1986 1
   11565     8777     8061 1
   11566     5921     6976 1
   11567     2283     3557 1
   11568     2038     2114 1
   11569     6212     6821 1
   11570      814     1462 1
   11571     2088     3544 1
   11572     2816     3538 1
   11573     5194     5346 1
   11574     2646     2440 1
   11575     7479     8088 1
   11576     5750     5817 1
   11577     3636     4078 1
   11578     9005    10089 1
   11579     5959     6641 1
   11580      824     1487 1
   11581     7322     7981 1
   11582     4352     9143 1
   11583      659      638 1
   11584    10184    10596 1
   11585     4954     5342 1
   11586     4729     5335 1
   11587     9702    10645 1
   11588     5381     5707 1
   11589     2749      140 1
   11590     3960     4413 1
   11591     8929     8530 1
   11592     5814     6442 1
   11593     2633     2181 1
   11594     5912     6674 1
   11595     2549     2563 1
   11596     2497     3235 1
   11597     4825     5040 1
   11598     7149     8205 1
   11599     2949     3005 1
   11600     4273     5242 1
   11601      873      310 1
   11602      994     1560 1
   11603     5609     5817 1
   11604     4941     5123 1
   11605     3954     4461 1
   11606     5387     6227 1
   11607     1124     1293 1
   11608     3949     4022 1
   11609     8999     9045 1
   11610     2039     3356 1
   11611     9841    10073 1
   11612     8258     8510 1
   11613     5498     7084 1
   11614     2353     2161 1
   11615     1206     6060 1
   11616     5431     5866 1
   11617      515      340 1
   11618     7693     8461 1
   11619     5611     5817 1
   11620    10450    10705 1
   11621     4990     5313 1
   11622     3079     1999 1
   11623      438      649 1
   11624     3581     3685 1
   11625     6238     6992 1
   11626      733     5591 1
   11627     3134     1887 1
   11628     1731      200 1
   11629     2873     3400 1
   11630     2483     2249 1
   11631     5907     6181 1
   11632     4755     5257 1
   11633     8104     8655 1
   11634     4056     4218 1
   11635     2876     3232 1
   11636      430     1545 1
   11637     4084     4157 1
   11638     9274    10312 1
   11639     6629     7012 1
   11640     1286     1403 1
   11641     3145     3410 1
   11642     1172       64 1
   11643     8410     8452 1
   11644     1395     1423 1
   11645     8123     8652 1
   11646     5563     6139 1
   11647     3289     1839 1
   11648     2823     2090 1
   11649     3063     2379 1
   11650     7720     8248 1
   11651     6523     6706 1
   11652     5685     6199 1
   11653     6064     6251 1
   11654     6056     6881 1
   11655     4452     4959 1
   11656      481     1766 1
   11657     7209     8268 1
   11658     1512     1653 1
   11659     4128     5029 1
   11660     9240     9937 1
   11661      183     6314 1
   11662     5336    10573 1
   11663     2934     3198 1
   11664     9272    10599 1
   11665     1230     1403 1
   11666      992      601 1
   11667      103      215 1
   11668     5362     5807 1
   11669     3613     4018 1
   11670     7346     7545 1
   11671     5951     6136 1
   11672     9546    10107 1
   11673     3826     4051 1
   11674     7328     7927 1
   11675     7672     8129 1
   11676    10049    10704 1
   11677     2928     2955 1
   11678     8849     8063 1
   11679     1429     1553 1
   11680     7574     8660 1
   11681     2987     2151 1
   11682     4423     4506 1
   11683     7416     7537 1
   11684     2856     2119 1
   11685     2642     2965 1
   11686     1306      166 1
   11687     7340     8472 1
   11688     2470     3261 1
   11689     7873     7898 1
   11690     2474     3429 1
   11691     9565    10391 1
   11692     8169     8642 1
   11693     7461     7738 1
   11694     8234     9647 1
   11695     4088     5281 1
   11696     5889     6298 1
   11697     4363     5233 1
   11698     6286     6869 1
   11699    10363    10693 1
   11700     4390     5241 1
   11701      305      105 1
   11702     5748     6395 1
   11703     8543     8571 1
   11704     7249     8346 1
   11705     2543     3487 1
   11706     9140     9338 1
   11707     8982     9402 1
   11708      838     1155 1
   11709     7379     8230 1
   11710     5861     6279 1
   11711     8549     8709 1
   11712     3168     2224 1
   11713     6578     6642 1
   11714     9189     9950 1
   11715     2928     3453 1
   11716     1954     2158 1
   11717     2041     3463 1
   11718     3099     3278 1
   11719     8813     7941 1
   11720    10257    10621 1
   11721      747      406 1
   11722     8745     8413 1
   11723     5929     6374 1
   11724     5975     6698 1
   11725     8441     8467 1
   11726     3712     4482 1
   11727      955      483 1
   11728     3294     2212 1
   11729     2581     3126 1
   11730      615     1557 1
   11731      939     1321 1
   11732     3915     5246 1
   11733     2537     3443 1
   11734     3769     4952 1
   11735     6520     6549 1
   11736     2999     3248 1
   11737     5891     6345 1
   11738     9256     9982 1
   11739     5518     6967 1
   11740     2346     1957 1
   11741     9000     9384 1
   11742     1817     3433 1
   11743     5652     7070 1
   11744     8421     8688 1
   11745      623     1142 1
   11746     2785     2127 1
   11747     6992     7059 1
   11748     1076     1751 1
   11749     4336     4751 1
   11750     5425     6347 1
   11751      734     1312 1
   11752     1190     1708 1
   11753     9616    10368 1
   11754     6146     7120 1
   11755     3046     4772 1
   11756     2499     2281 1
   11757     8009     8686 1
   11758     9711    10126 1
   11759     7381     8521 1
   11760     4051     4564 1
   11761     1193     6965 1
   11762     8996    10126 1
   11763     3726     4807 1
   11764     9392    10258 1
   11765     1201       80 1
   11766     6317     6483 1
   11767     2589     2254 1
   11768     8224     8486 1
   11769     7816    10145 1
   11770     4008     4200 1
   11771      958      429 1
   11772     9177    10305 1
   11773     3888     3987 1
   11774     7197     8564 1
   11775     1403      147 1
   11776     7305     8442 1
   11777     3644     4098 1
   11778     2835     3031 1
   11779      505       56 1
   11780     1297     1780 1
   11781     6086     6321 1
   11782     1885     1995 1
   11783     1363      242 1
   11784     2619     2824 1
   11785     3639     4059 1
   11786     7241     8047 1
   11787     2465     1953 1
   11788     2448     1844 1
   11789     3616     3840 1
   11790    10526    10692 1
   11791     5731     6839 1
   11792      924     1003 1
   11793     7594     8074 1
   11794     1125      286 1
   11795     2830     3084 1
   11796     9988    10238 1
   11797    10295    10335 1
   11798     7998     8322 1
   11799     2686     3219 1
   11800     8740     7695 1
   11801     6550     6581 1
   11802     8046     8279 1
   11803     8065     8692 1
   11804     7906     8381 1
   11805     7930     8014 1
   11806     7272     8715 1
   11807     6233     6318 1
   11808     3870     5097 1
   11809     3981     4639 1
   11810     9196     9536 1
   11811     3836     4590 1
   11812     2968     2236 1
   11813     4914     5180 1
   11814     9986    10457 1
   11815     4571     4946 1
   11816     4688     4920 1
   11817     3712     4601 1
   11818     2418     2228 1
   11819     9130     9750 1
   11820     3759     5299 1
   11821     4413     5034 1
   11822     9639    10475 1
   11823     3171     1854 1
   11824     7916     8079 1
   11825     6835     6865 1
   11826      842      917 1
   11827     6081     6697 1
   11828     8972     9541 1
   11829     2838     2158 1
   11830      135    10316 1
   11831     5651     6632 1
   11832      805     1429 1
   11833     3945     5313 1
   11834     1462     1665 1
   11835     2074     3479 1
   11836     5757     6970 1
   11837     8988     9443 1
   11838     3023     2321 1
   11839    10064    10693 1
   11840      341     1589 1
   11841     4455     4865 1
   11842     2785     3141 1
   11843     8416     8635 1
   11844     9312     9996 1
   11845     8966     9806 1
   11846     3681     3762 1
   11847     5837     6767 1
   11848     5602     6555 1
   11849     8131     8208 1
   11850     9694    10231 1
   11851     8862     7370 1
   11852     6395     6734 1
   11853     5470     7025 1
   11854     3150     2084 1
   11855     9353    10279 1
   11856     1195     1338 1
   11857     4994     5102 1
   11858     5641     7092 1
   11859     9852    10202 1
   11860     3018     1996 1
   11861     1431      226 1
   11862     1166     1629 1
   11863     2147     2184 1
   11864      474     1767 1
   11865     5506     6233 1
   11866     6178     6985 1
   11867     8738     7558 1
   11868     5877     7087 1
   11869     8301     8681 1
   11870     9299    10078 1
   11871     9524     9748 1
   11872     9797    10101 1
   11873     7225     7676 1
   11874     9011    10358 1
   11875     5124     5234 1
   11876     8953     9060 1
   11877     9257     9537 1
   11878     7483     7874 1
   11879     4490     5076 1
   11880     3088     1899 1
   11881     8924     8674 1
   11882      529      219 1
   11883     2523     4384 1
   11884     1252     1267 1
   11885     5094     5345 1
   11886     2669     3303 1
   11887     1210     1768 1
   11888     8946     9395 1
   11889      889     1126 1
   11890     9740    10491 1
   11891     6241     7007 1
   11892     3143     3283 1
   11893     7333     7652 1
   11894     8863     7245 1
   11895     4602     4649 1
   11896     2338     3190 1
   11897     4190     5007 1
   11898      783      591 1
   11899     6364     6725 1
   11900     9848    10134 1
   11901     4069     4380 1
   11902     5736     5906 1
   11903     3733     4612 1
   11904     4906     5132 1
   11905     6414     6664 1
   11906     6684     7066 1
   11907     4800     5186 1
   11908     7782     8351 1
   11909     6668     6751 1
   11910      918     1470 1
   11911     9300    10018 1
   11912     9260     9756 1
   11913     7771     8340 1
   11914     5581     6481 1
   11915     9102    10181 1
   11916     9603    10138 1
   11917     1038     1557 1
   11918     5576     6168 1
   11919     9576     9834 1
   11920     5845     7020 1
   11921     1255       65 1
   11922     9914    10214 1
   11923     2045     2133 1
   11924     5130     5350 1
   11925     2798     1198 1
   11926     4472     4511 1
   11927     1445      193 1
   11928     5521     6604 1
   11929      519     1727 1
   11930     9264    10110 1
   11931     3279     2187 1
   11932     4110     5216 1
   11933     7804     8345 1
   11934     7669     8568 1
   11935     2599     2056 1
   11936      508      102 1
   11937     5715     5887 1
   11938     1718      169 1
   11939     6471     6890 1
   11940     2639     3362 1
   11941     9610     9912 1
   11942     9067     9722 1
   11943     7639     7708 1
   11944     9416    10380 1
   11945     1602      197 1
   11946     6789     6895 1
   11947     9273    10042 1
   11948     3590     5316 1
   11949     4074     4210 1
   11950     3154     3233 1
   11951     2143     2291 1
   11952      994     1042 1
   11953     9710    10325 1
   11954     4026     5349 1
   11955     9110     9426 1
   11956     9540    10351 1
   11957     7546     7955 1
   11958     1859     2278 1
   11959     9605     9926 1
   11960     6095     6878 1
   11961     4911     4953 1
   11962        7     1057 1
   11963     2398     3341 1
   11964     9175     9220 1
   11965     2867     2018 1
   11966     1137      237 1
   11967     7432     8148 1
   11968     9902    10522 1
   11969     7388     8340 1
   11970     2002     2220 1
   11971     2961     3458 1
   11972     6181     6745 1
   11973     5078     5336 1
   11974     5896     6872 1
   11975     5377     6981 1
   11976     7928     8048 1
   11977     2239     4657 1
   11978     8902     7509 1
   11979      446     1491 1
   11980      154     5367 1
   11981      594      261 1
   11982     4389     5112 1
   11983      839      309 1
   11984     7178     7974 1
   11985     3633     4550 1
   11986     5885     6688 1
   11987     4094     5105 1
   11988     9051    10139 1
   11989     3803     4633 1
   11990      909     1178 1
   11991     8905     7636 1
   11992     8003     8086 1
   11993    10551    10571 1
   11994      459     1092 1
   11995     5477     5838 1
   11996       32      201 1
   11997      899     1345 1
   11998     3156     1872 1
   11999     4066     5294 1
   12000     5604     6943 1
   12001     8681     8699 1
   12002     7495     7767 1
   12003     9289    10486 1
   12004     7575     8695 1
   12005     1836     2286 1
   12006     4253     4350 1
   12007     9081     9442 1
   12008     7155     7842 1
   12009     9509    10319 1
   12010     3592     4609 1
   12011     2441     5305 1
   12012     5573     6271 1
   12013     4181     9831 1
   12014     7377     8286 1
   12015     3054     2075 1
   12016     6085     7073 1
   12017     4180     4256 1
   12018     5784     6449 1
   12019     5403     5858 1
   12020     8850     8273 1
   12021     5814     5874 1
   12022      565      381 1
   12023     1228      179 1
   12024     5509     6410 1
   12025     3824     4129 1
   12026      797     1170 1
   12027     9795    10665 1
   12028     8891     7965 1
   12029     7465     7773 1
   12030     4464     5240 1
   12031     9630    10289 1
   12032     4247     4796 1
   12033     3699     4986 1
   12034     2333     2245 1
   12035     4536     4712 1
   12036     4696     5016 1
   12037     8909     8203 1
   12038     8336     8657 1
   12039     5415     5973 1
   12040     4202     4731 1
   12041     4681     5228 1
   12042     7170     8577 1
   12043     4363     4855 1
   12044      870      728 1
   12045     4158     5341 1
   12046     5088     5153 1
   12047     6638     6659 1
   12048     9457    10191 1
   12049     3946     4705 1
   12050     3033     8846 1
   12051     4029     4266 1
   12052     8845     8922 1
   12053     6161     6703 1
   12054     2675     2481 1
   12055     2129     3470 1
   12056     5534     5841 1
   12057     4576     4748 1
   12058     2620     2643 1
   12059     3920     4846 1
   12060     6245     6882 1
   12061     3128     2260 1
   12062     9254    10321 1
   12063      907      219 1
   12064     2649     2146 1
   12065     6713     6998 1
   12066      971     1273 1
   12067     7997     8018 1
   12068     5675     5739 1
   12069     9021    10036 1
   12070     5603     6418 1
   12071     9016     9475 1
   12072     5717     7023 1
   12073     1801     1906 1
   12074      499     1106 1
   12075     2958     3361 1
   12076     7187     8063 1
   12077     3089     2469 1
   12078     3656     4094 1
   12079     3530     3967 1
   12080     9037    10655 1
   12081     1054     1668 1
   12082     8808     7476 1
   12083     1603     6557 1
   12084     1217      245 1
   12085     2166     2280 1
   12086     9667    10006 1
   12087     9300    10546 1
   12088     7636     7848 1
   12089     7314     8169 1
   12090    10006    10410 1
   12091     2584     7792 1
   12092     3898     4154 1
   12093     9196     9786 1
   12094     6175     6739 1
   12095     5760     6597 1
   12096      554     1592 1
   12097     3667     3846 1
   12098     4491     5082 1
   12099     3954     5169 1
   12100     9128    10389 1
   12101     8198     8394 1
   12102     8421     8685 1
   12103     5989     6166 1
   12104     9324     9806 1
   12105     9053    10600 1
   12106     7326     7511 1
   12107     1804     3402 1
   12108     7587     8503 1
   12109     7778     8039 1
   12110     2121     2174 1
   12111     2984     3280 1
   12112     7150     8172 1
   12113     1307       62 1
   12114    10377    10570 1
   12115     9064     9763 1
   12116    10128    10189 1
   12117     7939     8544 1
   12118     8487     8713 1
   12119     2987     1893 1
   12120     9577    10179 1
   12121     2856     2202 1
   12122       15      456 1
   12123     8906     8178 1
   12124     9905    10508 1
   12125     8036     8121 1
   12126     3725     5199 1
   12127     6186     6914 1
   12128     5797     6013 1
   12129      683      696 1
   12130     9201     9573 1
   12131     2922     2987 1
   12132     1331      344 1
   12133     7432     8220 1
   12134      555     1066 1
   12135     9009     9814 1
   12136     7831     8625 1
   12137      544     3540 1
   12138     9402    10244 1
   12139     1237     1781 1
   12140     2003     2146 1
   12141     3755     4832 1
   12142     2977     2410 1
   12143     2110     2296 1
   12144     1553      175 1
   12145     2605     3525 1
   12146       19      157 1
   12147     7364     7506 1
   12148     5397     6892 1
   12149     2659     3274 1
   12150     4947     5268 1
   12151     8813     7837 1
   12152     9968    10214 1
   12153     2690     2406 1
   12154     9329    10288 1
   12155     4199     4505 1
   12156     3629     4007 1
   12157     5839     6158 1
   12158     8756     7569 1
   12159     5455     6486 1
   12160     8907     7875 1
   12161      838     1456 1
   12162     2728     3542 1
   12163     4687     5091 1
   12164     8943    10716 1
   12165     1369      156 1
   12166     3166     2024 1
   12167    10288    10530 1
   12168     6875     7015 1
   12169     9315     9511 1
   12170     1059      394 1
   12171     5592     7102 1
   12172     6510     6839 1
   12173     2570     2654 1
   12174     2570     3017 1
   12175      843      923 1
   12176      657     1477 1
   12177     4221     4694 1
   12178     2511     2308 1
   12179     7776     8595 1
   12180     8331     9794 1
   12181      822     1672 1
   12182     3185     1806 1
   12183     6237     7129 1
   12184     5681     5992 1
   12185      921      971 1
   12186     2927     3212 1
   12187      233     3699 1
   12188     5599     6582 1
   12189       86      128 1
   12190     7581     8974 1
   12191     5749     6261 1
   12192     7450     8186 1
   12193     4248     4428 1
   12194     9370     9537 1
   12195     3785     4087 1
   12196      757     1458 1
   12197     8081     8217 1
   12198     9325    10527 1
   12199     6065     6775 1
   12200     9672    10457 1
   12201     6161     6652 1
   12202     3767     9727 1
   12203     2527     2732 1
   12204     2949     3008 1
   12205     2948     3546 1
   12206     2466     3557 1
   12207     1152       96 1
   12208     5753     6558 1
   12209     6131     6663 1
   12210     7722     7860 1
   12211     6208     6270 1
   12212     1334     1776 1
   12213     5786     6636 1
   12214      912     1165 1
   12215     7755     8400 1
   12216     4318     4451 1
   12217     6487     6658 1
   12218     4292     4668 1
   12219     9657    10093 1
   12220    10564    10627 1
   12221     3575     4165 1
   12222     5455     5866 1
   12223     2925     3199 1
   12224      661     1668 1
   12225     5628     6568 1
   12226     3013     3495 1
   12227      338     1779 1
   12228     5617     6584 1
   12229     1590       75 1
   12230     7932     7971 1
   12231     3708     4948 1
   12232     3843     4611 1
   12233     9208    10029 1
   12234     8268     8395 1
   12235     7143     8399 1
   12236     5761     6157 1
   12237     8185     8707 1
   12238     3098     2334 1
   12239     2047     3507 1
   12240     2030     2049 1
   12241     7470     7570 1
   12242     5700     5970 1
   12243      715     1333 1
   12244     3844     4845 1
   12245     9270     9373 1
   12246     4171     5108 1
   12247     2597     2981 1
   12248     7632     7902 1
   12249     1007     1276 1
   12250     3921     5093 1
   12251     4515     5031 1
   12252     3164     3482 1
   12253     7190     8305 1
   12254     8780     8140 1
   12255       42     4528 1
   12256     9952    10655 1
   12257     3741     9893 1
   12258     5830     6437 1
   12259     7214     8282 1
   12260     4937     5018 1
   12261     9766    10612 1
   12262      889      132 1
   12263     7161     8015 1
   12264     3788     4573 1
   12265     5367     5963 1
   12266     8971    10059 1
   12267     1059     1063 1
   12268     9200     9506 1
   12269     3807     4758 1
   12270      962     1567 1
   12271     7334     7563 1
   12272     3022     2340 1
   12273     4703     4768 1
   12274     9631    10047 1
   12275     3036     1938 1
   12276     3696     4514 1
   12277     9847     9886 1
   12278     4113     4683 1
   12279     5560     6449 1
   12280      454      119 1
   12281     6555     6564 1
   12282     3999     4625 1
   12283     8363     8590 1
   12284     1044      175 1
   12285     6382     6986 1
   12286    10243    10434 1
   12287     9360     9494 1
   12288     2808     1915 1
   12289      694       81 1
   12290     7840     8683 1
   12291     3746     5232 1
   12292     5805     6854 1
   12293     4149     4427 1
   12294     1260      372 1
   12295     5678     6707 1
   12296     4265     4980 1
   12297     3228     2005 1
   12298     9110     9896 1
   12299     7279     8444 1
   12300     8363     8612 1
   12301     3848     5041 1
   12302     5977     6352 1
   12303     7602     7811 1
   12304     4510     5317 1
   12305     9675    10031 1
   12306     9051    10603 1
   12307     1149     1677 1
   12308     8133     8452 1
   12309     1043      285 1
   12310     3008     1962 1
   12311     7412     8017 1
   12312     8732     8426 1
   12313     9115     9481 1
   12314     7522     7712 1
   12315     5357     5931 1
   12316     1268     1579 1
   12317     2179     3391 1
   12318     1984     2241 1
   12319    10103    10490 1
   12320     6081     6514 1
   12321     9033     9878 1
   12322      844      906 1
   12323     1840     2184 1
   12324     7216     8368 1
   12325    10227    10345 1
   12326     3863     5257 1
   12327     7198     8177 1
   12328     1358     1777 1
   12329     7484     8717 1
   12330      287     1555 1
   12331      545       84 1
   12332     9161    10387 1
   12333     8827     8631 1
   12334     8956    10561 1
   12335     4040     4972 1
   12336     3972     4486 1
   12337     8962    10334 1
   12338     3635     5249 1
   12339     5448     6530 1
   12340     3684     5191 1
   12341     1233     1617 1
   12342     6580     6607 1
   12343     4457     4693 1
   12344     9789    10423 1
   12345     4238     4917 1
   12346      270      392 1
   12347      372     1477 1
   12348     8811     7967 1
   12349     9073    10235 1
   12350     6281     6905 1
   12351    10367    10393 1
   12352     5960     6145 1
   12353    10150    10248 1
   12354     9071     9599 1
   12355     2053     2285 1
   12356     6172     6284 1
   12357     4246     4796 1
   12358     2107     3422 1
   12359     8845     7435 1
   12360     1103      350 1
   12361     8639     8713 1
   12362     2765     2980 1
   12363     9301     9804 1
   12364     7733     7928 1
   12365     1472      182 1
   12366     3345     3559 1
   12367     2664     1832 1
   12368     4172     4404 1
   12369     2592     2050 1
   12370     8763     7500 1
   12371     6452    10633 1
   12372     4950     5350 1
   12373     7925     8653 1
   12374     4376     5332 1
   12375     5692     7021 1
   12376     9601     9862 1
   12377     8568     8716 1
   12378     9977    10053 1
   12379       45      915 1
   12380     3639     4439 1
   12381     8720     8477 1
   12382     6036     6659 1
   12383     4374     4443 1
   12384    10055    10599 1
   12385    10404    10605 1
   12386      965      409 1
   12387     9268    10716 1
   12388     6945     7007 1
   12389     4486     5040 1
   12390     4006     5305 1
   12391      898      791 1
   12392     3220     3291 1
   12393     6326     6929 1
   12394     8732     8793 1
   12395     2829     1955 1
   12396     5829     7095 1
   12397     5851     6221 1
   12398     4335     4951 1
   12399     2494     2886 1
   12400     7397     7601 1
   12401     1159     1660 1
   12402      681      329 1
   12403     3284     2248 1
   12404     3640     4571 1
   12405     4239     4942 1
   12406     7556     8137 1
   12407     1433     1539 1
   12408     2777     2011 1
   12409     1304     1388 1
   12410     2329     3429 1
   12411        5      435 1
   12412     2323     1961 1
   12413       51     1461 1
   12414      334      259 1
   12415      337     1640 1
   12416     5371     6517 1
   12417      676      631 1
   12418     9221    10219 1
   12419     9709    10702 1
   12420     8155     8425 1
   12421     2734     1917 1
   12422     1186      292 1
   12423      560     1615 1
   12424    10284    10514 1
   12425     2777     2194 1
   12426     5748     6724 1
   12427      509      215 1
   12428     2862     3330 1
   12429     4442     5200 1
   12430    10196    10361 1
   12431     3061     1966 1
   12432     2470     7694 1
   12433      666     5609 1
   12434     7199     7557 1
   12435     4104     5061 1
   12436     1698     6611 1
   12437     2397     3191 1
   12438     8268     8671 1
   12439     3265     1865 1
   12440     5812     6629 1
   12441     2429     2293 1
   12442     6349     6665 1
   12443     5511     5518 1
   12444     3820     4411 1
   12445     2470     7282 1
   12446      884     1594 1
   12447     5792     6289 1
   12448      506     6190 1
   12449     2735     3246 1
   12450      666      775 1
   12451     4368     5090 1
   12452     4993     5021 1
   12453     3209     3479 1
   12454     9276     9532 1
   12455     5966     6107 1
   12456     1203      274 1
   12457     3938     4200 1
   12458     5857     6469 1
   12459     7503     8082 1
   12460     8871     7944 1
   12461     5516     6505 1
   12462     1907     3443 1
   12463     7925     8174 1
   12464     5834     6152 1
   12465      997     1553 1
   12466     8985    10668 1
   12467      648     1416 1
   12468      662      340 1
   12469     2823     2100 1
   12470    10052    10291 1
   12471     1812     1982 1
   12472     2653     3364 1
   12473     9865    10448 1
   12474     2939     3035 1
   12475     8196     8432 1
   12476      693       85 1
   12477     9058     9153 1
   12478     5845     6198 1
   12479     2717     3242 1
   12480     9642     9691 1
   12481     2909     1884 1
   12482     4256     5307 1
   12483     8951     9091 1
   12484     8646     9572 1
   12485     7198     7421 1
   12486      128      194 1
   12487     6653     6854 1
   12488     6215     6941 1
   12489     1124     1703 1
   12490     9111     9715 1
   12491     1202      406 1
   12492     6724     6989 1
   12493     5728     6009 1
   12494     7623     7683 1
   12495      448     1369 1
   12496      413       57 1
   12497    10362    10507 1
   12498     3635     4713 1
   12499      971      212 1
   12500     8861     7156 1
   12501    10221    10581 1
   12502     7368     8263 1
   12503     7204     7319 1
   12504     5485     6255 1
   12505     3769     4621 1
   12506      958     1281 1
   12507     4771     4831 1
   12508     1025      559 1
   12509     5402     5405 1
   12510     5564     5610 1
   12511     9124    10099 1
   12512      875     1624 1
   12513     9046     9495 1
   12514     7389     8077 1
   12515     9993    10186 1
   12516     3480     8396 1
   12517     4235     4537 1
   12518     8863     7233 1
   12519     3110     3254 1
   12520     5517     6831 1
   12521     9945    10510 1
   12522      849      870 1
   12523     3246     1831 1
   12524     1245      388 1
   12525     3018     3332 1
   12526     8888     8382 1
   12527     7387     7611 1
   12528     3646     4259 1
   12529     4060     4940 1
   12530     4436     4579 1
   12531     4026     4101 1
   12532     6131     7123 1
   12533     1531     1549 1
   12534     5773     6790 1
   12535     5615     5957 1
   12536     7737     8241 1
   12537     5928     5940 1
   12538     5755     6420 1
   12539     6311     6823 1
   12540     9664     9820 1
   12541     4774     4966 1
   12542      283      331 1
   12543     3992     4864 1
   12544     5082     5217 1
   12545     3049     2298 1
   12546     8802     8870 1
   12547     7209     7613 1
   12548     1666      209 1
   12549       24     1620 1
   12550     1830     2281 1
   12551     1155     1477 1
   12552     5748     5819 1
   12553      335      138 1
   12554      774      209 1
   12555     9811     9954 1
   12556     4644     4905 1
   12557     3447     3462 1
   12558     2376     3550 1
   12559     8462     8644 1
   12560     5709     6563 1
   12561      572     1679 1
   12562     5718     7004 1
   12563     5385     5783 1
   12564     4648     9172 1
   12565     7315     8703 1
   12566     1345     1611 1
   12567     5557     5818 1
   12568     2791     1991 1
   12569     3868     4607 1
   12570     2428     2152 1
   12571     3111     1898 1
   12572     1237     5048 1
   12573     7842     8560 1
   12574     8379     8551 1
   12575     4926     5069 1
   12576     9339     9752 1
   12577     6842     6906 1
   12578     9431    10589 1
   12579     8793     7148 1
   12580     4419     5055 1
   12581     5809     6290 1
   12582     8035     8447 1
   12583     9513     9924 1
   12584     3922     4702 1
   12585     7302     7620 1
   12586     5850     6152 1
   12587     5922     6276 1
   12588     2851     2438 1
   12589     8262     8301 1
   12590     8053     8323 1
   12591     4892     5039 1
   12592     3841     4448 1
   12593     7737     8560 1
   12594     3622     4900 1
   12595     6906     7063 1
   12596     4727     5118 1
   12597     2844     2176 1
   12598     5541     7025 1
   12599     7846     8509 1
   12600     2692     2731 1
   12601      484      181 1
   12602     9723    10699 1
   12603     3200     2083 1
   12604     9029    10109 1
   12605     1815     7742 1
   12606     8809     8362 1
   12607      512      644 1
   12608      480     1469 1
   12609     3950     4465 1
   12610     2760     3546 1
   12611     2969     2450 1
   12612     2990     2275 1
   12613     5721     6438 1
   12614     7562     7972 1
   12615     4162     4822 1
   12616     3215     2005 1
   12617     9748    10250 1
   12618     7865     8025 1
   12619     9804    10478 1
   12620      983     1318 1
   12621     7301     7664 1
   12622     9783    10492 1
   12623     1113     1513 1
   12624     2629     2123 1
   12625     3836     4380 1
   12626      787      493 1
   12627     3706     4971 1
   12628     8807     7629 1
   12629     7369     8154 1
   12630     4131     4673 1
   12631     9114    10108 1
   12632     6004     6457 1
   12633     5375     5492 1
   12634     4260     5233 1
   12635     2979     2070 1
   12636     6007     6773 1
   12637     3901     4694 1
   12638     5770     6881 1
   12639     9180    10160 1
   12640     7882     8683 1
   12641     9437    10464 1
   12642     3822     4377 1
   12643     2285     3507 1
   12644     8435     8615 1
   12645      472     1074 1
   12646     4168     5160 1
   12647     8783     7378 1
   12648      962     1565 1
   12649     5277     5341 1
   12650     2355     3461 1
   12651      712     1267 1
   12652     7532     8508 1
   12653       10      375 1
   12654     2495     3053 1
   12655     2938     1878 1
   12656      838     1240 1
   12657     5362     5663 1
   12658     8831     7230 1
   12659     6245     6440 1
   12660     9568     9744 1
   12661    10025    10502 1
   12662     6382     6900 1
   12663      696     1265 1
   12664     8851     8470 1
   12665     6136     7049 1
   12666     2408     1505 1
   12667     2393     1843 1
   12668     5575     6590 1
   12669     4466     4697 1
   12670     4918     5205 1
   12671      585      197 1
   12672     7320     8314 1
   12673     2892     2298 1
   12674     3719     4085 1
   12675     9793    10116 1
   12676      540      566 1
   12677     1905     2270 1
   12678     7348     7525 1
   12679     7748     8313 1
   12680     5769     5840 1
   12681     3069     3133 1
   12682     3386     8342 1
   12683     1408      426 1
   12684     9775    10554 1
   12685     3828     4647 1
   12686      896      967 1
   12687     2705     3326 1
   12688     5434     6059 1
   12689     9521     9659 1
   12690     9202     9427 1
   12691    10028    10078 1
   12692     8719     8151 1
   12693     2836     3088 1
   12694     3855     4330 1
   12695     1716     1733 1
   12696     4588     5066 1
   12697     2633     2451 1
   12698     6034     6333 1
   12699     6192     6458 1
   12700     2883     2428 1
   12701     5574     6720 1
   12702     7249     7428 1
   12703     3841     3889 1
   12704     9214     9307 1
   12705     7938     8290 1
   12706    10206    10310 1
   12707     7593     8674 1
   12708    10025    10594 1
   12709     5443     6735 1
   12710     4642     5291 1
   12711     9617    10213 1
   12712     1767     6993 1
   12713     9146     9946 1
   12714     4168     4308 1
   12715     2876     3424 1
   12716     4788     5341 1
   12717     5759     6209 1
   12718     6105     7963 1
   12719     2657     2778 1
   12720     6260     7033 1
   12721     5775     6909 1
   12722     7544     8382 1
   12723     3845     5124 1
   12724     9968    10296 1
   12725     4011     5094 1
   12726    10237    10449 1
   12727     7184     8144 1
   12728     7499     8393 1
   12729     7755     8484 1
   12730     6327     6991 1
   12731     2484     3263 1
   12732     2721     3137 1
   12733     3654     5063 1
   12734     3140     2225 1
   12735     2723     1881 1
   12736     7348     8049 1
   12737       10      308 1
   12738     3014     1867 1
   12739     3665     4917 1
   12740     6499     7011 1
   12741     2378     2214 1
   12742      469     1283 1
   12743     9516    10168 1
   12744     4075     4686 1
   12745     8912     7448 1
   12746     8860     7609 1
   12747     2900     2050 1
   12748     8940     9867 1
   12749     7979     8048 1
   12750     1132     1554 1
   12751     6293     6829 1
   12752     5438     6441 1
   12753     3286     1936 1
   12754     7806     8132 1
   12755     2046     2270 1
   12756     3979     5021 1
   12757     8861     8376 1
   12758     5639     7067 1
   12759    10057    10127 1
   12760      799     1724 1
   12761     3576     4259 1
   12762     2975     2072 1
   12763     2611     2693 1
   12764     2419     3455 1
   12765     3948     4431 1
   12766      964      572 1
   12767     8999     9126 1
   12768     7227     8377 1
   12769     7940     8350 1
   12770     7833     8679 1
   12771     5825     7074 1
   12772      988      614 1
   12773     6448     6499 1
   12774     3585     3591 1
   12775     9145    10070 1
   12776     1056     1411 1
   12777     3565     4149 1
   12778     1836     3499 1
   12779     6445     6923 1
   12780     9312    10013 1
   12781     7300     8366 1
   12782      565      265 1
   12783     6233     6355 1
   12784    10312    10667 1
   12785     7545     7937 1
   12786     2215     3403 1
   12787     6884     7053 1
   12788     5966     6851 1
   12789     4141     4487 1
   12790     9597    10069 1
   12791     6373     6543 1
   12792     2073     3461 1
   12793      826      399 1
   12794     1596       67 1
   12795     9628     9725 1
   12796     7865     7922 1
   12797     8899     8275 1
   12798     7568     7575 1
   12799     3708     5056 1
   12800     8101     8268 1
   12801     7844     8627 1
   12802     8655     9567 1
   12803     7843     7892 1
   12804     5552     6994 1
   12805     6181     7104 1
   12806     4025     4871 1
   12807     7288     7735 1
   12808     4560     4975 1
   12809    10195    10317 1
   12810     5902     6609 1
   12811     8088     8374 1
   12812     3995     4493 1
   12813     4189     4945 1
   12814    10149    10453 1
   12815      719     1712 1
   12816     2584     3505 1
   12817     5381     6792 1
   12818     5624     6952 1
   12819     3589     3862 1
   12820     9502     9855 1
   12821     4179     4572 1
   12822      785     5562 1
   12823     9736    10338 1
   12824     3419     3503 1
   12825     7670     8082 1
   12826     7909     8430 1
   12827     2629     2336 1
   12828      296     1708 1
   12829      931     1290 1
   12830     6196     6219 1
   12831     4659     5017 1
   12832     2921     3431 1
   12833     2498     3120 1
   12834     5947     6223 1
   12835     5664     6226 1
   12836      917      342 1
   12837     2296     3437 1
   12838     9233    10529 1
   12839     9195     9561 1
   12840     4035     5336 1
   12841     2650     2088 1
   12842     4465     4560 1
   12843     5374     5761 1
   12844     8164     8355 1
   12845     7826     8226 1
   12846     9255     9292 1
   12847     8776     7676 1
   12848     4010     4937 1
   12849     2464     2109 1
   12850     2114     2217 1
   12851     3134     2456 1
   12852     5932     6245 1
   12853     5597     6176 1
   12854     6721     7056 1
   12855     4392     4696 1
   12856     2377     2040 1
   12857     2921     2144 1
   12858     3812     3992 1
   12859     6388     6814 1
   12860     5494     6621 1
   12861     6473     6726 1
   12862     4254     9493 1
   12863     9420     9480 1
   12864     3782     4148 1
   12865     6636     6901 1
   12866     9106     9147 1
   12867     2498     2936 1
   12868     4569     4962 1
   12869     1351     3848 1
   12870     8435     8551 1
   12871      840     5304 1
   12872     2551     2591 1
   12873     8884     6022 1
   12874     7439     8602 1
   12875     4305     5316 1
   12876      353     1545 1
   12877     1791     2230 1
   12878     6422     6426 1
   12879     8972     9172 1
   12880     9431    10397 1
   12881     4657     5279 1
   12882     2601     1803 1
   12883     1115     1185 1
   12884     7734     8414 1
   12885     3696     4223 1
   12886     7287     7646 1
   12887     9928    10587 1
   12888     5041     5137 1
   12889      965     1634 1
   12890     2400     3490 1
   12891      924       69 1
   12892     9036    10080 1
   12893     5813     6324 1
   12894     1163     1219 1
   12895     9682    10010 1
   12896     9582    10511 1
   12897    10454    10713 1
   12898      977     1517 1
   12899     3148     3156 1
   12900     2847     2182 1
   12901     3044     3255 1
   12902     7554     8668 1
   12903     9740     9882 1
   12904     2910     3485 1
   12905     4508     5331 1
   12906     2979     8751 1
   12907     9265     9623 1
   12908     3699     4824 1
   12909      554     1315 1
   12910     9733     9841 1
   12911     2993     3094 1
   12912       16     1400 1
   12913     5852     6071 1
   12914     4282     4676 1
   12915      746     1153 1
   12916     5577     6274 1
   12917     7515     8626 1
   12918     7826     8654 1
   12919      506      160 1
   12920     1469      164 1
   12921      466     1713 1
   12922     9177    10433 1
   12923     2551     3337 1
   12924     5418     6619 1
   12925     1565      132 1
   12926      566     1225 1
   12927     2979     3310 1
   12928     2536     2703 1
   12929     4118     4634 1
   12930     4858     5349 1
   12931     2811     3092 1
   12932     3759     4826 1
   12933     7273     7925 1
   12934     5729     6708 1
   12935     2275     3537 1
   12936     9149     9267 1
   12937     3749     4304 1
   12938     5082     5222 1
   12939      755     1751 1
   12940     5790     6908 1
   12941     7494     7524 1
   12942     9007    10531 1
   12943     1685     6031 1
   12944      642     1450 1
   12945     7345     9704 1
   12946     4338     5011 1
   12947     8838     8154 1
   12948     9561    10542 1
   12949     9272    10674 1
   12950     3045     1864 1
   12951      801       86 1
   12952      753     1661 1
   12953     7988     8701 1
   12954     3861     4983 1
   12955     7548     8690 1
   12956     4637     4833 1
   12957     4519     4678 1
   12958     1072     4818 1
   12959     5623     6442 1
   12960     9761    10323 1
   12961     8795     7688 1
   12962     9748    10371 1
   12963     7606     8453 1
   12964      521      386 1
   12965     3635     4811 1
   12966     2618     3458 1
   12967     3626     4416 1
   12968      993     1407 1
   12969     5386     7040 1
   12970      737      190 1
   12971     9321    10417 1
   12972     5766     6567 1
   12973     9215     9746 1
   12974     5992     6947 1
   12975     5761     6256 1
   12976      366      402 1
   12977     6341     6547 1
   12978     2800     3381 1
   12979     8309     8699 1
   12980     4324     4534 1
   12981     9648    10353 1
   12982      736      804 1
   12983     5732     5830 1
   12984      874     1631 1
   12985     6734     7089 1
   12986     1233      420 1
   12987     1180      121 1
   12988     2946     3333 1
   12989      661     1196 1
   12990     2724     3194 1
   12991      360     1661 1
   12992      697     1533 1
   12993     3873     4875 1
   12994     3884     5323 1
   12995     4118     4842 1
   12996     9466     9734 1
   12997     2908     1945 1
   12998     3278     1930 1
   12999     5524     7036 1
   13000     4031     4850 1
   13001     3824     3893 1
   13002      725     1100 1
   13003    10095    10473 1
   13004     7950     8092 1
   13005     1142     1169 1
   13006     7864     7976 1
   13007    10174    10558 1
   13008     9717     9940 1
   13009     2064     3484 1
   13010       41      638 1
   13011     3799     4033 1
   13012    10511    10636 1
   13013     1089     4019 1
   13014     5996     6307 1
   13015     8959     9895 1
   13016     2447     1606 1
   13017     6102     6169 1
   13018     6017     6410 1
   13019     8045     8141 1
   13020     4481     5198 1
   13021     6151     6326 1
   13022     9221    10670 1
   13023     6229     6930 1
   13024     4951     5024 1
   13025     8808     8261 1
   13026     2309     2139 1
   13027      855      832 1
   13028     6022     6839 1
   13029     4624     4849 1
   13030     2903     2006 1
   13031     9121    10196 1
   13032     2932     3262 1
   13033     3091     3365 1
   13034     2818     1833 1
   13035     9255     9589 1
   13036     3794     3847 1
   13037     4439     5060 1
   13038     8810     7897 1
   13039     5612     6143 1
   13040      770     1442 1
   13041     7305     8271 1
   13042     4295     4438 1
   13043     3723     4689 1
   13044     4701     4803 1
   13045     8147     8582 1
   13046     2390     1790 1
   13047     5465     5915 1
   13048     8992     9339 1
   13049     9342     9772 1
   13050     5703     6362 1
   13051     7718     8445 1
   13052     6754     7038 1
   13053     3239     2097 1
   13054     7212     7613 1
   13055      444      530 1
   13056     7679     8195 1
   13057     7664     7686 1
   13058     3085     3157 1
   13059      897     1460 1
   13060     9671     9813 1
   13061     4169     4808 1
   13062     4252     4739 1
   13063     3320     1903 1
   13064     5424     6728 1
   13065     7275     7808 1
   13066     4548     5280 1
   13067     2809     1816 1
   13068     5578     5722 1
@<TRIPOS>SUBSTRUCTURE
       1 RES             1 RESIDUE    0 **** ROOT      0
