@<TRIPOS>MOLECULE
RES
1208 1468 1 0 1
SMALL
NO_CHARGES
@<TRIPOS>CRYSIN
   45.1700    44.6660    27.2710    90.0000    90.0000    90.0000  1  1
@<TRIPOS>ATOM
       1 O           16.9610    37.7850    28.2370 O             1 RES     
       2 Si           6.3360    28.1980    25.2500 Si            1 RES     
       3 O           17.9060    26.7860    31.7030 O             1 RES     
       4 O           15.8490    14.2010    40.5350 O             1 RES     
       5 Si          25.5700     6.7490    28.4360 Si            1 RES     
       6 Si          26.1270    30.2530    33.2920 Si            1 RES     
       7 Si          28.0880    41.6420    31.6640 Si            1 RES     
       8 Si          21.3710    27.5260    29.0300 Si            1 RES     
       9 O           39.4480    29.2340    27.8210 O             1 RES     
      10 Si          33.4320     8.7100    27.8520 Si            1 RES     
      11 O           24.7340    20.0660    24.9410 O             1 RES     
      12 Si          10.4950    13.5740    28.5040 Si            1 RES     
      13 O           19.8110    31.2390    36.4190 O             1 RES     
      14 O           36.9740    24.5110    37.0750 O             1 RES     
      15 O           34.8140    14.3740    25.0390 O             1 RES     
      16 Si          14.1710    28.3780    25.7990 Si            1 RES     
      17 Si          29.1440    28.4270    41.0200 Si            1 RES     
      18 O           26.6350    24.5160    26.9750 O             1 RES     
      19 O           28.7030     7.7470    29.1800 O             1 RES     
      20 O           18.6570    23.8230    36.7470 O             1 RES     
      21 O           24.8910    11.5040    31.8950 O             1 RES     
      22 O           18.5550    10.2520    33.1900 O             1 RES     
      23 O           33.0730    22.3560    24.5250 O             1 RES     
      24 O           25.3930    28.7860    33.2110 O             1 RES     
      25 O           41.8490    24.1030    28.0020 O             1 RES     
      26 O           23.2220    21.8630    35.0990 O             1 RES     
      27 O           18.7980    11.3860    26.7480 O             1 RES     
      28 Si          24.0800    27.9740    30.3070 Si            1 RES     
      29 O           21.0260    35.7070    30.4200 O             1 RES     
      30 OS          16.7570    27.7320    42.6850 OS            1 RES     
      31 Si          36.4730    25.8030    36.3130 Si            1 RES     
      32 OS          23.8380    28.9400    43.9050 OS            1 RES     
      33 O           28.7240    18.3380    27.5450 O             1 RES     
      34 O           19.8310    18.9470    23.8580 O             1 RES     
      35 O           29.4790    23.3650    43.2710 O             1 RES     
      36 OS          27.9380    16.6390    41.4240 OS            1 RES     
      37 O           14.8510    14.7160    34.8360 O             1 RES     
      38 O           19.5870    28.8450    25.1550 O             1 RES     
      39 Si          42.1760    32.5820    31.1900 Si            1 RES     
      40 Si          31.8560    34.4070    38.0820 Si            1 RES     
      41 O           20.8740    26.1540    29.5570 O             1 RES     
      42 O            6.9600    21.5890    30.5880 O             1 RES     
      43 Si          18.8400    27.2070    38.4230 Si            1 RES     
      44 O            8.0170    22.6680    24.6990 O             1 RES     
      45 Si          31.1710    31.2090    26.2960 Si            1 RES     
      46 O           16.8140    23.0430    34.0030 O             1 RES     
      47 Si          29.2570    26.5860    26.2040 Si            1 RES     
      48 O            5.6090    23.3510    24.1710 O             1 RES     
      49 Si          22.3040    42.5220    31.7970 Si            1 RES     
      50 O           21.5280    10.7650    36.4940 O             1 RES     
      51 OS          30.3120     9.7260    35.9360 OS            1 RES     
      52 O           23.4170    33.9710    42.1430 O             1 RES     
      53 O            9.4950    22.3710    32.0150 O             1 RES     
      54 O           27.6130    43.8120    25.5170 O             1 RES     
      55 OS          36.0530    10.7090    35.2530 OS            1 RES     
      56 O           18.2720    35.3330    38.5930 O             1 RES     
      57 Si          22.5540    36.0130    30.3490 Si            1 RES     
      58 O           19.5900    21.5850    27.3260 O             1 RES     
      59 O           42.9550    19.5730    25.5050 O             1 RES     
      60 Si           7.5600    26.8530    29.3320 Si            1 RES     
      61 Si          27.1340    21.8570    34.7500 Si            1 RES     
      62 OS          38.2590    33.8750    37.9070 OS            1 RES     
      63 Si          24.8430    12.5870    27.0610 Si            1 RES     
      64 O           35.6440    16.4730    31.8850 O             1 RES     
      65 O           13.8370    33.9370    24.2710 O             1 RES     
      66 Si          23.1010    16.8800    28.2380 Si            1 RES     
      67 O           17.4420    33.9410    33.1180 O             1 RES     
      68 O           37.6030    30.6010    30.6510 O             1 RES     
      69 Si          36.8180    24.1870    26.5850 Si            1 RES     
      70 O           16.5040    40.4500    28.7790 O             1 RES     
      71 Si          40.7190    23.4980    35.6730 Si            1 RES     
      72 O           33.7100    33.3200    31.2460 O             1 RES     
      73 O           24.7840    19.4680    32.3590 O             1 RES     
      74 O           39.5250    30.4390    32.5960 O             1 RES     
      75 OS          18.1450    18.0040    42.4720 OS            1 RES     
      76 Si          21.5110    18.3130    39.0220 Si            1 RES     
      77 O           24.7220    37.4520    38.5670 O             1 RES     
      78 O           13.6880    12.7450    31.5630 O             1 RES     
      79 O           22.0640    26.2100    35.7250 O             1 RES     
      80 Si          14.6660    12.2450    25.5030 Si            1 RES     
      81 O           12.0710    27.7700    34.2050 O             1 RES     
      82 O           44.1080    33.1030    25.3160 O             1 RES     
      83 Si          22.0330    30.3640    30.3700 Si            1 RES     
      84 Si          10.4590    17.5370    34.4190 Si            1 RES     
      85 Si          24.8800    32.8720    38.8600 Si            1 RES     
      86 Si          23.9100    16.9440    37.4730 Si            1 RES     
      87 Si           6.6390    20.5590    29.4030 Si            1 RES     
      88 Si          34.9200    27.9980    37.7870 Si            1 RES     
      89 O           19.0690    42.6800    29.1820 O             1 RES     
      90 Si          31.7580    35.8500    25.8560 Si            1 RES     
      91 OS          39.8830    37.4680    30.4440 OS            1 RES     
      92 O           27.3580    19.1350    36.6360 O             1 RES     
      93 O           30.2480    30.3090    25.3820 O             1 RES     
      94 O           17.4120    30.5150    36.7540 O             1 RES     
      95 OS          21.1860    19.4860    44.3070 OS            1 RES     
      96 O           17.9410    28.3770    38.0580 O             1 RES     
      97 Si          25.2750     9.6050    27.5700 Si            1 RES     
      98 O           22.3560    27.0300    38.1120 O             1 RES     
      99 Si          26.8190    42.5380    26.0040 Si            1 RES     
     100 O           22.9100    42.9460    27.3060 O             1 RES     
     101 OS          20.2800    21.4890    45.5370 OS            1 RES     
     102 Si          35.3680    14.7500    37.7730 Si            1 RES     
     103 O           40.5520    15.2410    28.4670 O             1 RES     
     104 Si          38.3490    29.7270    31.7790 Si            1 RES     
     105 O           37.0940    12.3440    31.2310 O             1 RES     
     106 Si          10.0590    17.4470    31.3700 Si            1 RES     
     107 Si           9.3130    28.7100    31.2840 Si            1 RES     
     108 O           36.1480    35.9810    29.0130 O             1 RES     
     109 O           17.5340    24.5020    32.1750 O             1 RES     
     110 Si          20.9430    25.4990    42.6260 Si            1 RES     
     111 Si          15.3900    33.8330    28.0640 Si            1 RES     
     112 Si          30.6310    30.4360    35.8510 Si            1 RES     
     113 Si          39.2000    21.0910    36.7860 Si            1 RES     
     114 Si          17.9690    18.8430    28.7790 Si            1 RES     
     115 OS          14.2630    25.0200    42.2500 OS            1 RES     
     116 O           24.9340    30.9910    24.1330 O             1 RES     
     117 O           11.4400    30.3000    34.3080 O             1 RES     
     118 O           23.3130    34.6700    30.5020 O             1 RES     
     119 Si          11.3180    29.0010    26.6670 Si            1 RES     
     120 OS          32.4000    23.2070    43.6880 OS            1 RES     
     121 Si          30.5310    35.3360    30.7350 Si            1 RES     
     122 Si          21.0400    21.0690    44.1920 Si            1 RES     
     123 Si          30.2060    24.9450    31.8950 Si            1 RES     
     124 O           37.4580    17.6790    30.5140 O             1 RES     
     125 O            6.0920    21.8440    26.0460 O             1 RES     
     126 O           24.6720    21.8840    43.1270 O             1 RES     
     127 O           21.6160    17.7220    40.5270 O             1 RES     
     128 O           34.8950    37.0190    31.1620 O             1 RES     
     129 O           28.3570    32.9960    37.0190 O             1 RES     
     130 O           22.9010    22.1840    39.0380 O             1 RES     
     131 O           11.4000    33.2450    28.2680 O             1 RES     
     132 O           14.4350    23.3100    33.1150 O             1 RES     
     133 O           16.8640    26.1490    26.9910 O             1 RES     
     134 O           21.6180    20.4650    28.4220 O             1 RES     
     135 O           24.7310    43.8050    35.4400 O             1 RES     
     136 Si          21.7680    15.8780    25.7400 Si            1 RES     
     137 O           18.0640    17.4490    29.6420 O             1 RES     
     138 O           28.9490    12.8300    34.2470 O             1 RES     
     139 Si          34.8010    15.0920    31.8130 Si            1 RES     
     140 O           28.9690    33.2560    40.9220 O             1 RES     
     141 Si          32.4130    25.0370    40.8770 Si            1 RES     
     142 O           43.4380    22.9070    30.9700 O             1 RES     
     143 O           11.5720    36.0840    31.3860 O             1 RES     
     144 O           25.2780    15.8930    30.5850 O             1 RES     
     145 Si          27.9820    38.9160    37.8230 Si            1 RES     
     146 OS          11.5370    11.8370    32.1350 OS            1 RES     
     147 O           31.1080    13.7860    32.8110 O             1 RES     
     148 OS          16.2540    42.2930    30.7660 OS            1 RES     
     149 Si          23.1040     5.7930    26.8080 Si            1 RES     
     150 O           12.1170    33.7490    30.4740 O             1 RES     
     151 O           25.4880     8.3370    28.5050 O             1 RES     
     152 O           23.3740    41.4160    31.6260 O             1 RES     
     153 Si          38.3130    32.8660    27.7210 Si            1 RES     
     154 Si           9.8270    33.7360    28.1930 Si            1 RES     
     155 OS           6.0080    19.2470    30.1650 OS            1 RES     
     156 O           20.6880    37.5350    34.2670 O             1 RES     
     157 Si          36.0120    36.9010    25.3090 Si            1 RES     
     158 O           35.8630    14.1920    36.3650 O             1 RES     
     159 Si          21.3620    11.2080    37.9910 Si            1 RES     
     160 O           15.8200    15.1530    27.4420 O             1 RES     
     161 O           31.9290    30.8390    35.1270 O             1 RES     
     162 Si          19.9230    41.6750    29.9720 Si            1 RES     
     163 Si          24.9460    37.5030    26.3700 Si            1 RES     
     164 Si          43.6700    28.9470    25.2930 Si            1 RES     
     165 Si          19.1240    34.0250    38.4510 Si            1 RES     
     166 Si          32.8520    35.2930    28.6770 Si            1 RES     
     167 Si          32.6500    11.7060    27.7110 Si            1 RES     
     168 Si          36.2640    18.6930    27.0340 Si            1 RES     
     169 OS          41.9250    16.1230    30.3730 OS            1 RES     
     170 Si          27.3840    23.5790    27.9870 Si            1 RES     
     171 O           18.0050    25.8710    38.1310 O             1 RES     
     172 O           28.7210    10.8280    27.2030 O             1 RES     
     173 O           10.8740    17.5830    24.3840 O             1 RES     
     174 Si          25.1640    33.1810    33.8450 Si            1 RES     
     175 O           26.5600    28.1530    36.5020 O             1 RES     
     176 O           19.9330    15.7340    30.9970 O             1 RES     
     177 O           38.4320    13.2760    29.3480 O             1 RES     
     178 Si          16.3400    30.5790    25.1450 Si            1 RES     
     179 O           27.3240    30.5480    37.2220 O             1 RES     
     180 O            6.6690    17.1600    26.1010 O             1 RES     
     181 OS          15.6410    18.5630    42.8850 OS            1 RES     
     182 O           19.7390    34.1960    26.2000 O             1 RES     
     183 O           20.0770    17.6520    38.5940 O             1 RES     
     184 Si          36.0880    21.5990    28.0290 Si            1 RES     
     185 O           38.5500    36.3200    28.4800 O             1 RES     
     186 O           34.6840    31.4660    37.3900 O             1 RES     
     187 O           21.3310    14.7470    26.8150 O             1 RES     
     188 O           23.9320    27.8370    39.9300 O             1 RES     
     189 O           34.8880    17.7270    30.0440 O             1 RES     
     190 O           44.4810    27.9880    26.3950 O             1 RES     
     191 O           19.4850    23.6490    33.2170 O             1 RES     
     192 Si          11.4130    24.0760    37.4490 Si            1 RES     
     193 Si          36.0820    23.5710    32.2290 Si            1 RES     
     194 OS          21.8980     5.1860    27.6860 OS            1 RES     
     195 O           33.6090    33.8860    28.8840 O             1 RES     
     196 O           32.8660    12.6020    26.4760 O             1 RES     
     197 O           39.7160    24.1320    34.6380 O             1 RES     
     198 Si          20.2750    32.6140    41.0110 Si            1 RES     
     199 O           21.3460    38.3430    28.1760 O             1 RES     
     200 O           33.5320    12.5190    28.7410 O             1 RES     
     201 OS          28.6290    40.2270    37.4160 OS            1 RES     
     202 Si          20.9520    23.8330    32.7780 Si            1 RES     
     203 Si          32.0150    20.4180    33.9960 Si            1 RES     
     204 Si          34.7090    21.5290    35.1910 Si            1 RES     
     205 O           22.9570    43.8120    31.1250 O             1 RES     
     206 O           24.4200    11.9720    25.7110 O             1 RES     
     207 O           22.6640    36.3410    28.7940 O             1 RES     
     208 O           20.4370     8.7240    32.0790 O             1 RES     
     209 O           34.8280    19.3690    38.9620 O             1 RES     
     210 O           19.7230    33.3810    39.7520 O             1 RES     
     211 O           23.3750    29.3490    30.7840 O             1 RES     
     212 O           29.0480    33.9760    34.8060 O             1 RES     
     213 O           41.8170    29.6100    33.2690 O             1 RES     
     214 OS          20.5880    38.2710    38.9860 OS            1 RES     
     215 O           22.0580    35.0160    35.6970 O             1 RES     
     216 O           23.8540     9.2880    26.9520 O             1 RES     
     217 O           22.8610    16.5610    26.6090 O             1 RES     
     218 O           19.5890    15.0290    38.5960 O             1 RES     
     219 O           20.2260    34.3790    37.3230 O             1 RES     
     220 O           44.7780    21.2140    26.1540 O             1 RES     
     221 Si          32.2610    39.2580    32.8540 Si            1 RES     
     222 Si          27.9620    23.7920    43.5470 Si            1 RES     
     223 Si          25.8890    16.3520    29.2300 Si            1 RES     
     224 Si          10.9200    34.7780    30.8210 Si            1 RES     
     225 O           25.7350    22.6470    34.9030 O             1 RES     
     226 Si           8.6920    30.1550    25.5070 Si            1 RES     
     227 O           24.7190    39.2200    31.8580 O             1 RES     
     228 Si          12.4340    39.3500    27.4230 Si            1 RES     
     229 Si          20.8520    28.4550    26.0870 Si            1 RES     
     230 Si          37.2180    35.7090    27.9100 Si            1 RES     
     231 Si          28.9720    25.9580    29.1950 Si            1 RES     
     232 O           11.5240    14.5870    27.8600 O             1 RES     
     233 OS           7.4980    23.5750    34.6240 OS            1 RES     
     234 O           18.7600    24.9210    30.1020 O             1 RES     
     235 OS          15.9290     8.0250    29.9820 OS            1 RES     
     236 O           11.9470    23.6550    32.1700 O             1 RES     
     237 Si          34.8200    30.5620    36.1270 Si            1 RES     
     238 O           30.5760     9.1480    30.4100 O             1 RES     
     239 O           11.0140    19.3590    26.2270 O             1 RES     
     240 Si          17.9450    28.1130    32.5280 Si            1 RES     
     241 O           36.7080    21.3570    29.4400 O             1 RES     
     242 O           26.0690    38.0080    34.9570 O             1 RES     
     243 O           17.0990    30.1800    29.0940 O             1 RES     
     244 O           44.7480    29.0990    24.0740 O             1 RES     
     245 O           21.6680    17.5790    34.5690 O             1 RES     
     246 O           29.3680    15.7200    35.7090 O             1 RES     
     247 OS          35.9190    39.0480    35.4430 OS            1 RES     
     248 Si          41.7100    22.5750    27.7890 Si            1 RES     
     249 Si          37.0830    12.4520    29.6370 Si            1 RES     
     250 O           19.4010    27.2900    39.9340 O             1 RES     
     251 O           26.8290    25.6500    37.4800 O             1 RES     
     252 O           13.2380    17.8340    30.9010 O             1 RES     
     253 O           13.3030    12.4550    24.6510 O             1 RES     
     254 O           32.9550     8.5330    29.3570 O             1 RES     
     255 Si          36.6120    29.0310    34.2130 Si            1 RES     
     256 Si          29.8710    18.9050    26.5730 Si            1 RES     
     257 OS          10.4040    32.5570    34.8900 OS            1 RES     
     258 O           32.3050    23.5150    40.3840 O             1 RES     
     259 O           22.3430    30.7490    36.2080 O             1 RES     
     260 Si          28.6960     7.5610    32.9230 Si            1 RES     
     261 O           31.0130    33.7930    39.2500 O             1 RES     
     262 Si          22.3730     8.6860    27.1950 Si            1 RES     
     263 O           36.9910    30.0370    28.2370 O             1 RES     
     264 O           17.8920    22.1040    31.7910 O             1 RES     
     265 Si          27.6060    38.1140    27.7320 Si            1 RES     
     266 O           29.3400    28.1780    25.8710 O             1 RES     
     267 O           22.3460    30.6710    28.7740 O             1 RES     
     268 O           31.7680    24.7170    32.1830 O             1 RES     
     269 O           17.6050    15.1410    31.0880 O             1 RES     
     270 OS          13.0490    38.3960    35.9310 OS            1 RES     
     271 O           21.3630    12.9240    28.7720 O             1 RES     
     272 O           36.8910    25.4510    25.5380 O             1 RES     
     273 Si          39.7520    27.0650    32.3560 Si            1 RES     
     274 O           17.3670    30.0830    42.4460 O             1 RES     
     275 O           33.4550    15.2070    32.6660 O             1 RES     
     276 O           15.6400    16.4130    25.2150 O             1 RES     
     277 Si          40.2150    27.7350    27.7710 Si            1 RES     
     278 O           27.8180    27.0580    29.3270 O             1 RES     
     279 OS          36.5890    28.8130    41.4180 OS            1 RES     
     280 O           10.1090    21.3890    25.0480 O             1 RES     
     281 Si          32.0090     8.4390    30.5940 Si            1 RES     
     282 O           32.4790    42.2620    27.3450 O             1 RES     
     283 O           29.4140    12.0940    31.8450 O             1 RES     
     284 OS          38.0690    27.4580    39.5980 OS            1 RES     
     285 O           34.0550    22.0380    39.8320 O             1 RES     
     286 O           34.3650    14.7280    30.3320 O             1 RES     
     287 Si          17.2930    31.3240    28.0140 Si            1 RES     
     288 Si          22.0960    13.9660    27.9480 Si            1 RES     
     289 O           18.0160    19.7500    31.9750 O             1 RES     
     290 O           32.8220    25.2020    37.0910 O             1 RES     
     291 O           29.4970     6.3840    32.2590 O             1 RES     
     292 OS          34.5860    42.0360    31.6890 OS            1 RES     
     293 O           29.6970    13.1110    26.9970 O             1 RES     
     294 Si          17.4210    36.2510    28.1160 Si            1 RES     
     295 OS          40.8430    31.4750    34.7900 OS            1 RES     
     296 O           33.8960    35.3630    32.6550 O             1 RES     
     297 O           28.5700    21.4530    25.4280 O             1 RES     
     298 O           22.5070    15.3980    28.6770 O             1 RES     
     299 O           31.7530    24.2980    24.6670 O             1 RES     
     300 O           25.1280    25.8000    39.3240 O             1 RES     
     301 O           14.0580    36.5210    32.2450 O             1 RES     
     302 O           34.4940    20.6930    36.5840 O             1 RES     
     303 Si          36.9480    20.9470    30.9400 Si            1 RES     
     304 O           22.4330     7.1880    26.8760 O             1 RES     
     305 O           27.4220    31.7990    42.2950 O             1 RES     
     306 O           30.4700    28.6290    41.9090 O             1 RES     
     307 Si          23.7710    15.6510    31.9710 Si            1 RES     
     308 O           24.3450    36.1640    35.1910 O             1 RES     
     309 Si          38.1620    29.9290    27.0520 Si            1 RES     
     310 OS           9.5680    20.9110    35.6090 OS            1 RES     
     311 Si           8.3830    24.8560    27.0770 Si            1 RES     
     312 O           31.5200    21.0600    39.2920 O             1 RES     
     313 OS          42.6940    16.8100    28.0490 OS            1 RES     
     314 O           17.8470    12.1050    34.7350 O             1 RES     
     315 O           14.9400    25.4760    28.6720 O             1 RES     
     316 Si          27.3720    33.3950    28.0880 Si            1 RES     
     317 Si          23.3120    25.4310    43.0440 Si            1 RES     
     318 O           29.1170    20.9140    31.9210 O             1 RES     
     319 O           12.5190    21.0590    25.4520 O             1 RES     
     320 Si          32.3310    14.5080    38.0670 Si            1 RES     
     321 Si          14.9150    34.9740    36.5760 Si            1 RES     
     322 O           32.8330    17.1280    28.4030 O             1 RES     
     323 Si          27.0420    30.5070    27.1040 Si            1 RES     
     324 O           35.6310    33.1380    38.8090 O             1 RES     
     325 OS          31.5420    14.2840    39.3730 OS            1 RES     
     326 O           16.0430    18.4940    38.1860 O             1 RES     
     327 Si          13.4470    26.6320    38.9580 Si            1 RES     
     328 Si          26.7370    14.8820    26.6470 Si            1 RES     
     329 O           29.3300    19.2360    25.0010 O             1 RES     
     330 O           29.4000     8.7540    33.7030 O             1 RES     
     331 O           13.0140    38.9910    25.9160 O             1 RES     
     332 O           37.9060    28.5050    35.0310 O             1 RES     
     333 O           37.2120    29.6560    32.8460 O             1 RES     
     334 Si          26.1280    21.4030    42.7460 Si            1 RES     
     335 O           37.8200    26.3350    35.6360 O             1 RES     
     336 O           21.4080    15.2040    40.1190 O             1 RES     
     337 O           35.0960    25.2920    35.7060 O             1 RES     
     338 Si          23.3870    18.8210    31.9290 Si            1 RES     
     339 O           32.2090    30.2570    42.1370 O             1 RES     
     340 O           36.1730    20.2550    34.7880 O             1 RES     
     341 Si          21.0550    31.4240    35.4220 Si            1 RES     
     342 O           20.4680    10.8520    24.6470 O             1 RES     
     343 Si          16.1590    29.0460    42.2580 Si            1 RES     
     344 O           35.4690    40.7930    24.9440 O             1 RES     
     345 Si          15.3540    19.4420    27.2630 Si            1 RES     
     346 O           32.9080    23.7610    26.8160 O             1 RES     
     347 O           23.7580    35.9080    40.3950 O             1 RES     
     348 Si          24.7790    42.3750    34.8560 Si            1 RES     
     349 Si          27.5360    12.9020    34.8700 Si            1 RES     
     350 Si          39.0860    17.0620    34.6210 Si            1 RES     
     351 Si          34.1030    23.8990    27.9250 Si            1 RES     
     352 O           15.2440    29.3410    25.1480 O             1 RES     
     353 O           26.2680    20.9070    41.2750 O             1 RES     
     354 Si          14.6020    23.9350    36.9860 Si            1 RES     
     355 OS          12.1890    40.8980    27.2910 OS            1 RES     
     356 Si          25.5830    34.6010    25.9120 Si            1 RES     
     357 OS          16.5720    37.0540    39.4280 OS            1 RES     
     358 O           37.4290    24.0840    33.1030 O             1 RES     
     359 Si          24.6470    10.0460    31.5010 Si            1 RES     
     360 OS           5.7490    32.1250    27.0810 OS            1 RES     
     361 O           28.4460     9.7790    24.7730 O             1 RES     
     362 O           23.1640    22.4060    25.6230 O             1 RES     
     363 O           11.7740    18.3370    34.5450 O             1 RES     
     364 O           42.2150    32.2470    26.8570 O             1 RES     
     365 O           36.9970     7.8000    25.9400 O             1 RES     
     366 OS          16.5580    39.8940    35.3330 OS            1 RES     
     367 O           21.5140    15.0160    35.1810 O             1 RES     
     368 Si          15.8310    19.6590    34.7290 Si            1 RES     
     369 Si          24.4450    42.5950    27.9090 Si            1 RES     
     370 Si          16.5040     8.7900    28.7160 Si            1 RES     
     371 O           26.6590    15.6160    25.2490 O             1 RES     
     372 O           34.4420    11.9740    36.1040 O             1 RES     
     373 Si          19.7970     9.2180    33.5310 Si            1 RES     
     374 O           38.1660    22.0330    37.4300 O             1 RES     
     375 Si          34.7480    27.2810    32.4070 Si            1 RES     
     376 O           41.8710    32.5840    24.3190 O             1 RES     
     377 O           25.4010    31.5870    33.6580 O             1 RES     
     378 O           31.4930    24.8680    42.1480 O             1 RES     
     379 O           20.3720    21.7130    42.9670 O             1 RES     
     380 O           27.0520    22.5920    43.0850 O             1 RES     
     381 Si          20.7840    14.5550    31.6250 Si            1 RES     
     382 Si          20.3550    20.1860    27.4820 Si            1 RES     
     383 O           10.9330    22.4660    34.0930 O             1 RES     
     384 Si          17.3190    36.5460    38.1200 Si            1 RES     
     385 Si          29.9970    28.2710    38.0290 Si            1 RES     
     386 O           26.3910    15.9080    39.8320 O             1 RES     
     387 Si          18.9790    30.2320    42.5310 Si            1 RES     
     388 Si          41.3410    32.7650    28.0930 Si            1 RES     
     389 Si          26.4140    29.6770    36.2560 Si            1 RES     
     390 Si          31.4040    29.1230    42.9950 Si            1 RES     
     391 O           32.4100    35.4730    27.2120 O             1 RES     
     392 O           36.7570    12.8280    34.1360 O             1 RES     
     393 OS          27.2640    34.4140    42.6590 OS            1 RES     
     394 O           37.1730    11.4950    28.3520 O             1 RES     
     395 Si          13.8510    29.2450    31.5020 Si            1 RES     
     396 O           17.1090    12.7610    28.1670 O             1 RES     
     397 Si          27.9480    20.3890    37.3410 Si            1 RES     
     398 O           31.5260    16.5970    32.1200 O             1 RES     
     399 Si          22.8800    19.8920    29.1040 Si            1 RES     
     400 OS          26.4260    20.3840    43.8560 OS            1 RES     
     401 Si          28.1140    33.5880    31.1220 Si            1 RES     
     402 Si          20.5770    14.0830    39.3070 Si            1 RES     
     403 O           26.8360    29.9780    34.7080 O             1 RES     
     404 OS          14.3550    12.9020    36.6630 OS            1 RES     
     405 Si          24.6340    37.5320    34.5650 Si            1 RES     
     406 Si          19.8310    33.1210    27.4290 Si            1 RES     
     407 O           25.9300    18.7470    34.5540 O             1 RES     
     408 Si          42.4450    28.3560    32.4670 Si            1 RES     
     409 OS          19.4080    30.5100    44.0640 OS            1 RES     
     410 O           42.1620    18.6600    32.2780 O             1 RES     
     411 Si          26.4980    17.1260    40.8280 Si            1 RES     
     412 Si          38.9190    27.3860    35.2910 Si            1 RES     
     413 OS          20.3400    16.4230    42.2070 OS            1 RES     
     414 O           22.7080    18.4210    28.4760 O             1 RES     
     415 Si          26.3200    18.1810    35.9310 Si            1 RES     
     416 O           36.3510    22.0880    31.8230 O             1 RES     
     417 Si          30.4900     9.6160    34.3470 Si            1 RES     
     418 O           27.8880    37.5600    29.1090 O             1 RES     
     419 O           31.6080    19.7600    35.4050 O             1 RES     
     420 O           21.0490    36.3560    26.6820 O             1 RES     
     421 O           21.3100    20.2110    34.7890 O             1 RES     
     422 O           26.9760    17.4730    29.2720 O             1 RES     
     423 Si          29.9190    28.8530    33.3310 Si            1 RES     
     424 O           34.8410     9.2510    24.9850 O             1 RES     
     425 O           17.2650    12.5750    32.4420 O             1 RES     
     426 Si          16.8800    38.8710    34.0820 Si            1 RES     
     427 O           21.7130    42.4420    33.2740 O             1 RES     
     428 O           35.0560    38.2080    25.3550 O             1 RES     
     429 O           18.7470    36.0310    28.9770 O             1 RES     
     430 OS          24.8270    11.1000    40.1570 OS            1 RES     
     431 O           32.1150    25.7960    39.6130 O             1 RES     
     432 O           26.9960    12.5980    31.2580 O             1 RES     
     433 Si          23.8220    33.2810    31.0480 Si            1 RES     
     434 Si          24.6790    26.6420    40.5890 Si            1 RES     
     435 O           10.1600    29.9410    26.0970 O             1 RES     
     436 O           15.8850     9.0970    25.3420 O             1 RES     
     437 Si          17.4380    32.5290    33.7620 Si            1 RES     
     438 O           30.9800    22.3680    26.1340 O             1 RES     
     439 O           28.4430    22.3210    33.9900 O             1 RES     
     440 Si          31.6890    18.2220    31.7880 Si            1 RES     
     441 O           22.9720    32.0210    31.0580 O             1 RES     
     442 O           36.1190    30.0420    35.3140 O             1 RES     
     443 Si          29.9760    32.6810    39.8530 Si            1 RES     
     444 O           13.1240    25.1390    37.5140 O             1 RES     
     445 OS          40.8990    24.2550    37.0920 OS            1 RES     
     446 OS          31.5950     6.8850    30.6910 OS            1 RES     
     447 Si          30.8780    16.0160    35.6660 Si            1 RES     
     448 O           13.9340    28.1130    39.0230 O             1 RES     
     449 O           18.2110     9.9130    24.8810 O             1 RES     
     450 O           40.1070    22.1150    36.0190 O             1 RES     
     451 O           30.2070    18.5960    31.5240 O             1 RES     
     452 O           21.0170    33.0020    35.3270 O             1 RES     
     453 O           14.9910    34.0330    35.3580 O             1 RES     
     454 OS          25.2260    14.3390    42.8660 OS            1 RES     
     455 Si          32.9240    34.1890    32.3690 Si            1 RES     
     456 Si          15.0640    16.2950    26.6790 Si            1 RES     
     457 OS          29.2240     5.7420    27.3570 OS            1 RES     
     458 OS          19.1650     5.7730    27.2980 OS            1 RES     
     459 Si          17.4970    24.9430    36.9330 Si            1 RES     
     460 O           12.7610    29.0530    26.0320 O             1 RES     
     461 O           36.2680    22.6090    35.9230 O             1 RES     
     462 Si          26.5920    27.8020    28.5770 Si            1 RES     
     463 O           26.2550    18.5680    40.2760 O             1 RES     
     464 O           29.7800    20.4210    27.0360 O             1 RES     
     465 O           16.2260    28.3860    36.1770 O             1 RES     
     466 O           32.7920    35.4460    24.6740 O             1 RES     
     467 O           30.1040    25.8370    25.1810 O             1 RES     
     468 Si          26.9680    40.9760    28.5720 Si            1 RES     
     469 O           21.1130    10.5580    30.2590 O             1 RES     
     470 Si          20.8600    13.6220    34.6050 Si            1 RES     
     471 O           16.2740    35.1810    28.2410 O             1 RES     
     472 Si           7.0030    31.7270    28.0780 Si            1 RES     
     473 O           28.0170    26.4950    35.3250 O             1 RES     
     474 O            7.5560    23.7650    32.0260 O             1 RES     
     475 Si          37.1330    19.2220    35.4130 Si            1 RES     
     476 OS          10.7770    12.8590    29.8350 OS            1 RES     
     477 O           26.3990    12.6170    33.8860 O             1 RES     
     478 O           29.4180    36.3860    30.7770 O             1 RES     
     479 O           32.3370    32.0070    29.5520 O             1 RES     
     480 O            7.1350    34.9840    25.7400 O             1 RES     
     481 OS          22.4720    44.8520    28.6170 OS            1 RES     
     482 Si          17.7400    35.1680    32.1180 Si            1 RES     
     483 O           31.9750    29.6660    30.3020 O             1 RES     
     484 O           32.3600    31.1910    25.2680 O             1 RES     
     485 Si          15.8210    13.6290    27.9680 Si            1 RES     
     486 Si          36.6130    31.0900    29.4560 Si            1 RES     
     487 O           15.9940    32.0830    34.0380 O             1 RES     
     488 O           25.0990    22.3400    24.1500 O             1 RES     
     489 Si          19.6160    35.8160    26.0190 Si            1 RES     
     490 Si          25.8150    12.7690    32.3540 Si            1 RES     
     491 OS          29.3520    33.1320    43.3250 OS            1 RES     
     492 OS          20.3750    33.4440    42.3320 OS            1 RES     
     493 Si          21.6460    21.7160    34.8210 Si            1 RES     
     494 O           24.0500    26.4470    34.0080 O             1 RES     
     495 O           43.2870    21.6720    24.0410 O             1 RES     
     496 O           27.0690    30.2540    31.9640 O             1 RES     
     497 Si          30.9830    23.9540    43.3850 Si            1 RES     
     498 OS           6.5500    30.3040    28.5500 OS            1 RES     
     499 O           26.4750    39.3120    38.0850 O             1 RES     
     500 Si          20.6220    34.5500    35.7710 Si            1 RES     
     501 O           12.1070    32.0910    36.5220 O             1 RES     
     502 Si          22.1850    37.1440    27.5600 Si            1 RES     
     503 O           31.5510    41.8500    25.1130 O             1 RES     
     504 O            8.0390    15.1540    25.3740 O             1 RES     
     505 O           32.4740    28.2920    43.8790 O             1 RES     
     506 Si          21.7560     9.1460    30.6030 Si            1 RES     
     507 O           15.7040    38.0980    33.2820 O             1 RES     
     508 O           17.0920    25.9470    35.6330 O             1 RES     
     509 OS          15.9560    14.4980    38.1990 OS            1 RES     
     510 Si          20.1710    23.3070    37.0290 Si            1 RES     
     511 O           15.6810    29.0300    40.7590 O             1 RES     
     512 O           14.9390    13.4370    29.2660 O             1 RES     
     513 O            6.2110    28.5030    23.4160 O             1 RES     
     514 O           38.3340    20.1190    35.9420 O             1 RES     
     515 O           24.4560    22.4760    37.0430 O             1 RES     
     516 O           32.2530    42.2000    30.4750 O             1 RES     
     517 O           11.3260    16.3510    31.2500 O             1 RES     
     518 Si          12.7820    19.4700    34.2890 Si            1 RES     
     519 O           12.1630    20.6670    35.2310 O             1 RES     
     520 O           16.3490    27.5220    29.0840 O             1 RES     
     521 O           40.4300    14.2150    30.6090 O             1 RES     
     522 O           18.3800    23.9620    26.9310 O             1 RES     
     523 O           41.4040    31.8150    32.2560 O             1 RES     
     524 Si          27.5850    37.5060    35.1320 Si            1 RES     
     525 O           21.4660    22.9700    23.7400 O             1 RES     
     526 O           31.5510    34.9110    31.9270 O             1 RES     
     527 Si          31.9300    15.1780    32.9410 Si            1 RES     
     528 O           32.6100    33.0230    33.5360 O             1 RES     
     529 O            8.6320    30.6620    23.9330 O             1 RES     
     530 Si          36.3120    12.5260    32.5790 Si            1 RES     
     531 O           20.8380    17.0430    25.4280 O             1 RES     
     532 O           41.7870    32.5990    29.6410 O             1 RES     
     533 O           14.5370    10.8650    26.1560 O             1 RES     
     534 Si          35.5620    22.4400    39.9670 Si            1 RES     
     535 O           21.8930    24.9660    33.4230 O             1 RES     
     536 O           16.6420    19.2510    40.6520 O             1 RES     
     537 Si          33.7680    32.6000    29.8290 Si            1 RES     
     538 O           36.3110    19.5080    31.4630 O             1 RES     
     539 O           31.4410    35.4340    29.4010 O             1 RES     
     540 O           19.3160    19.1490    28.1010 O             1 RES     
     541 O           27.4850    33.6920    29.6150 O             1 RES     
     542 Si          20.3540    39.4850    27.9020 Si            1 RES     
     543 OS          44.3440    25.2700    31.9570 OS            1 RES     
     544 O           19.6110    18.7970    33.6600 O             1 RES     
     545 O           36.1470    20.2180    27.2340 O             1 RES     
     546 Si          10.9500    21.7160    35.4650 Si            1 RES     
     547 O           23.7590    25.7740    41.5720 O             1 RES     
     548 O           19.0080    40.8900    31.1090 O             1 RES     
     549 Si          35.6950    25.6010    30.0340 Si            1 RES     
     550 O           12.7680    19.6470    32.7090 O             1 RES     
     551 O           36.0940    24.4860    31.0190 O             1 RES     
     552 O           33.1400    33.4530    37.9720 O             1 RES     
     553 O           43.1550    30.4510    25.4930 O             1 RES     
     554 O           24.8340    32.6840    30.1660 O             1 RES     
     555 OS          36.5310    18.1600    40.1090 OS            1 RES     
     556 Si          35.5750    19.4120    40.3080 Si            1 RES     
     557 O           35.3200    26.7910    31.0380 O             1 RES     
     558 O           22.9010    27.4970    29.3830 O             1 RES     
     559 O           31.3420    37.4130    26.0580 O             1 RES     
     560 OS          23.3900     7.4550    33.6750 OS            1 RES     
     561 O           23.2610    24.0370    43.7500 O             1 RES     
     562 O           29.8780    25.5860    30.4860 O             1 RES     
     563 Si          32.2060    23.1000    25.6100 Si            1 RES     
     564 O           14.8090    27.0320    34.5820 O             1 RES     
     565 Si          17.5520    25.4520    30.9880 Si            1 RES     
     566 Si          12.4960    36.8180    32.3320 Si            1 RES     
     567 O           32.7410    15.7910    26.2210 O             1 RES     
     568 OS          30.2900    29.3330    44.2230 OS            1 RES     
     569 Si          24.4400    15.6230    42.4310 Si            1 RES     
     570 Si          28.0920     9.7110    26.3290 Si            1 RES     
     571 Si          43.8970    24.3920    30.7120 Si            1 RES     
     572 O           26.5590    33.7410    34.1070 O             1 RES     
     573 O           33.4740    31.5510    39.7990 O             1 RES     
     574 O           27.1570    16.8920    35.4910 O             1 RES     
     575 O           14.9150    38.0380    30.6640 O             1 RES     
     576 O           35.9510    27.0150    37.1310 O             1 RES     
     577 Si          18.9760    16.4980    38.4330 Si            1 RES     
     578 O           40.2690    20.3350    33.0590 O             1 RES     
     579 O           36.0230    22.9080    38.5140 O             1 RES     
     580 Si          28.5270    30.6470    31.3520 Si            1 RES     
     581 O           18.4790    37.5240    37.5330 O             1 RES     
     582 OS          34.1270    11.7870    38.5470 OS            1 RES     
     583 O           26.5440     9.5860    26.5680 O             1 RES     
     584 Si          38.9640    24.1510    33.1990 Si            1 RES     
     585 O           35.2100    35.5630    25.1100 O             1 RES     
     586 Si          27.8740    15.6110    36.0600 Si            1 RES     
     587 O           21.8070    12.3670    34.7020 O             1 RES     
     588 O           14.0290    24.5310    31.0280 O             1 RES     
     589 Si          17.2730    39.3220    27.9660 Si            1 RES     
     590 O           15.8380    21.0280    30.7960 O             1 RES     
     591 O           14.8760    19.9320    25.8180 O             1 RES     
     592 Si          38.3040    17.3000    29.2690 Si            1 RES     
     593 OS          24.6200    39.4550    39.9910 OS            1 RES     
     594 O           30.5120    32.5840    26.1350 O             1 RES     
     595 O           17.4420     7.7000    28.1400 O             1 RES     
     596 O           40.2900    17.8870    33.9810 O             1 RES     
     597 OS          17.6080    42.4670    32.6260 OS            1 RES     
     598 Si          42.5510    21.6440    30.5920 Si            1 RES     
     599 Si          27.8310    34.6000    33.9540 Si            1 RES     
     600 O           17.2800    14.3070    35.5530 O             1 RES     
     601 O           25.5190    11.2790    37.9560 O             1 RES     
     602 O           33.6930    28.3730    31.9060 O             1 RES     
     603 Si          36.5400    38.5470    34.1120 Si            1 RES     
     604 O           27.3420    31.8460    27.7970 O             1 RES     
     605 O           27.2270    25.0160    39.9620 O             1 RES     
     606 O           16.3450    24.7220    30.2270 O             1 RES     
     607 OS          25.3130    35.6100    42.3580 OS            1 RES     
     608 O           23.1850    38.2170    34.7480 O             1 RES     
     609 Si          36.8860    22.9810    37.2640 Si            1 RES     
     610 OS           8.0710    36.6450    27.2300 OS            1 RES     
     611 O           21.8430    27.4000    25.4550 O             1 RES     
     612 Si          27.6650    18.7470    28.6880 Si            1 RES     
     613 Si          20.3400    22.7320    41.7410 Si            1 RES     
     614 OS          24.0380    40.1170    37.9000 OS            1 RES     
     615 O           35.3870    39.8280    27.3290 O             1 RES     
     616 O           22.7250    17.6610    38.3310 O             1 RES     
     617 O           14.4390    40.4000    30.2580 O             1 RES     
     618 Si          21.9690    23.3370    25.2050 Si            1 RES     
     619 O           15.3700     9.0420    27.6640 O             1 RES     
     620 Si          31.9810    41.0870    26.4080 Si            1 RES     
     621 O           28.9320    31.8550    38.9990 O             1 RES     
     622 OS          24.2770    41.6310    36.1760 OS            1 RES     
     623 Si          21.5710    16.2610    41.2430 Si            1 RES     
     624 O           19.6640    13.3750    35.5350 O             1 RES     
     625 Si          12.5500    19.2830    31.2120 Si            1 RES     
     626 O           37.4600    32.3920    29.0610 O             1 RES     
     627 Si          12.6780    16.3620    30.4760 Si            1 RES     
     628 O           19.1270    11.8020    29.2890 O             1 RES     
     629 O           13.5900    15.1060    30.6450 O             1 RES     
     630 Si          22.4800    16.2090    34.9150 Si            1 RES     
     631 O           24.9030     9.2610    32.7850 O             1 RES     
     632 O           14.7480    27.7070    27.1430 O             1 RES     
     633 OS          25.8830     6.0040    29.7990 OS            1 RES     
     634 Si          10.5960    23.1500    32.7860 Si            1 RES     
     635 O           23.3170     9.8940    34.8470 O             1 RES     
     636 Si          35.5030    40.0460    28.9020 Si            1 RES     
     637 O           16.2030    35.7640    37.2410 O             1 RES     
     638 Si          33.5180    41.3100    30.8240 Si            1 RES     
     639 O           27.3910    14.4170    35.2780 O             1 RES     
     640 O           26.3870    37.2350    31.0010 O             1 RES     
     641 Si          24.4100    22.2760    38.5590 Si            1 RES     
     642 O           28.0110    37.9270    36.6180 O             1 RES     
     643 O           28.8530    38.2960    26.7900 O             1 RES     
     644 O           18.6690    32.1100    27.6330 O             1 RES     
     645 O            8.7680    32.5930    28.3910 O             1 RES     
     646 O           38.9560    26.7850    27.9020 O             1 RES     
     647 OS          35.6630    11.1050    32.9640 OS            1 RES     
     648 O           11.1910    22.8710    36.4230 O             1 RES     
     649 Si          41.1370    19.0980    33.4660 Si            1 RES     
     650 O           33.7570    26.0830    32.8060 O             1 RES     
     651 O           25.0810    17.9190    36.9200 O             1 RES     
     652 O           34.7150    22.4890    28.2370 O             1 RES     
     653 O           12.0650    26.6280    39.7820 O             1 RES     
     654 O            9.8490    17.5170    32.9350 O             1 RES     
     655 O           37.8000    17.9860    34.6740 O             1 RES     
     656 O           16.5230    24.1600    25.2600 O             1 RES     
     657 O            8.0100    20.8180    28.5760 O             1 RES     
     658 O           35.6860    27.8520    33.5600 O             1 RES     
     659 Si          27.6850    31.9280    37.9580 Si            1 RES     
     660 O           37.8590    19.1020    25.8620 O             1 RES     
     661 O           25.3970    16.7650    41.8830 O             1 RES     
     662 O           20.7270    23.2560    26.1280 O             1 RES     
     663 O           35.7230    23.5940    41.0500 O             1 RES     
     664 O           28.2550    14.9640    26.9720 O             1 RES     
     665 O           30.9570    21.5890    33.6220 O             1 RES     
     666 Si          41.4130    16.5900    28.9790 Si            1 RES     
     667 O           30.3150    43.5490    29.4740 O             1 RES     
     668 Si          20.8640    18.5830    25.0070 Si            1 RES     
     669 OS          24.4430     9.1450    38.3190 OS            1 RES     
     670 Si          33.3290    11.7590    37.1990 Si            1 RES     
     671 Si          17.5020    23.9780    41.8930 Si            1 RES     
     672 O            9.2800    34.4150    26.9220 O             1 RES     
     673 Si          29.5780    22.0640    32.9420 Si            1 RES     
     674 O           28.6350     8.2890    26.7860 O             1 RES     
     675 O           39.7990    32.7740    28.0510 O             1 RES     
     676 Si          27.5250    26.8850    36.7410 Si            1 RES     
     677 O           33.5980    18.4750    36.8360 O             1 RES     
     678 OS          23.7250    16.0600    43.7610 OS            1 RES     
     679 O           33.2210    32.4430    42.0530 O             1 RES     
     680 Si          29.1560    39.0030    32.8110 Si            1 RES     
     681 O           17.8300     7.4670    25.6890 O             1 RES     
     682 O           12.4990    16.5120    28.9950 O             1 RES     
     683 Si           7.9330    24.4750    33.4070 Si            1 RES     
     684 O           35.6380    37.3960    33.4550 O             1 RES     
     685 O           23.2070     9.8350    31.0360 O             1 RES     
     686 OS          34.6010    19.5230    41.5680 OS            1 RES     
     687 O           26.2540    37.6170    27.2290 O             1 RES     
     688 O           35.6410    28.3350    39.1840 O             1 RES     
     689 O            9.0530    22.6660    29.7930 O             1 RES     
     690 OS          28.4740    38.5540    39.2720 OS            1 RES     
     691 O           13.3230    12.5390    34.1340 O             1 RES     
     692 Si          33.6540    18.2240    29.2630 Si            1 RES     
     693 O           13.2340     8.5740    26.0370 O             1 RES     
     694 O           33.8360    14.9990    37.9050 O             1 RES     
     695 Si          22.0920    31.0420    27.2550 Si            1 RES     
     696 O           28.2980    19.3650    29.9830 O             1 RES     
     697 O           33.9000    25.3550    41.1810 O             1 RES     
     698 O           42.6150    25.0630    30.1240 O             1 RES     
     699 O           28.0480    29.4660    41.5580 O             1 RES     
     700 O           34.5320    18.7980    28.0880 O             1 RES     
     701 O           21.5210    19.9780    39.0920 O             1 RES     
     702 OS           9.7530    34.2560    31.7880 OS            1 RES     
     703 O           27.8010    41.4850    29.7800 O             1 RES     
     704 Si          33.6170    24.6030    35.8630 Si            1 RES     
     705 OS          32.8020     7.6850    26.9210 OS            1 RES     
     706 O           26.5980    26.4460    33.1750 O             1 RES     
     707 Si          26.9180    12.0450    37.8520 Si            1 RES     
     708 O           31.0840    31.7550    40.5380 O             1 RES     
     709 Si          13.5020    27.1380    33.6640 Si            1 RES     
     710 OS          31.1220    43.9420    31.9740 OS            1 RES     
     711 Si          20.9270    41.4980    34.3450 Si            1 RES     
     712 O           23.2100    16.5030    36.2350 O             1 RES     
     713 OS          36.9530    39.6700    33.0370 OS            1 RES     
     714 Si          11.5970    29.9270    29.5870 Si            1 RES     
     715 Si          30.8910    42.9510    30.7480 Si            1 RES     
     716 Si          16.9660    19.0860    42.1810 Si            1 RES     
     717 O           41.1840    26.7970    28.6710 O             1 RES     
     718 Si          38.4300    25.4890    28.7740 Si            1 RES     
     719 OS          17.0780    20.4320    42.9250 OS            1 RES     
     720 Si          23.2860    32.5520    41.4730 Si            1 RES     
     721 O           24.5720    17.1030    28.8450 O             1 RES     
     722 O           35.5090    38.5360    29.3580 O             1 RES     
     723 O           28.5950    33.7940    27.2600 O             1 RES     
     724 O           25.1670    14.1810    32.1640 O             1 RES     
     725 O           19.2180    29.1090    32.7140 O             1 RES     
     726 Si           9.1390    22.0440    28.2800 Si            1 RES     
     727 O            9.3200    14.4600    28.8450 O             1 RES     
     728 Si          35.8700     8.9280    26.1700 Si            1 RES     
     729 O           28.6370    26.9350    41.1570 O             1 RES     
     730 O           11.8410    25.7820    24.6950 O             1 RES     
     731 OS           6.5870    25.8610    30.1700 OS            1 RES     
     732 O           34.5210    24.9930    29.1230 O             1 RES     
     733 O           25.3880    23.3940    38.8670 O             1 RES     
     734 O           20.4430    22.1590    38.1700 O             1 RES     
     735 O           21.6260    29.8250    26.3720 O             1 RES     
     736 O           29.7430    38.3190    24.4380 O             1 RES     
     737 Si          14.7570    24.6130    40.7830 Si            1 RES     
     738 Si          23.6190    30.6460    37.1300 Si            1 RES     
     739 Si          32.4130    26.3340    38.1110 Si            1 RES     
     740 O            9.1810    35.9170    24.7770 O             1 RES     
     741 O           16.3380    32.5490    28.4430 O             1 RES     
     742 OS          14.7220    29.1020    42.9070 OS            1 RES     
     743 O           32.5810    18.5100    30.4410 O             1 RES     
     744 O           36.7360    10.2330    26.2650 O             1 RES     
     745 O           16.6140    19.0430    36.0080 O             1 RES     
     746 O           27.3880    15.5500    37.5400 O             1 RES     
     747 Si          32.5670    31.3720    41.1260 Si            1 RES     
     748 O           24.5390    41.3160    33.6830 O             1 RES     
     749 OS          27.9450    11.6010    38.9330 OS            1 RES     
     750 OS          27.9110    43.0010    32.5760 OS            1 RES     
     751 Si          24.1850    30.4190    43.4020 Si            1 RES     
     752 O           42.2870    21.9960    26.5160 O             1 RES     
     753 OS          27.5580    24.1740    45.0130 OS            1 RES     
     754 Si          12.8360    36.9150    35.4150 Si            1 RES     
     755 OS          27.4500     7.0570    33.7910 OS            1 RES     
     756 O           18.4220    25.5630    24.9670 O             1 RES     
     757 Si          39.6460    37.3370    28.9290 Si            1 RES     
     758 O           31.0780    11.5710    28.1740 O             1 RES     
     759 O           18.8550    23.2970    41.4900 O             1 RES     
     760 OS          42.3630    34.0410    31.8240 OS            1 RES     
     761 Si          36.3200    12.5260    35.6440 Si            1 RES     
     762 Si          25.6500    21.0200    28.1660 Si            1 RES     
     763 O            7.7540    28.8330    25.4300 O             1 RES     
     764 O           26.5570    34.7500    24.6970 O             1 RES     
     765 O           16.8330    18.9740    33.7790 O             1 RES     
     766 O           35.5900    17.9490    25.6270 O             1 RES     
     767 Si          42.8500    32.1250    25.4680 Si            1 RES     
     768 Si          35.3990    25.0980    41.5200 Si            1 RES     
     769 O           29.0640    25.4440    32.9900 O             1 RES     
     770 O           26.4040    32.3570    38.6400 O             1 RES     
     771 Si          17.4070    20.8570    31.0260 Si            1 RES     
     772 O           22.9170    19.4310    30.5910 O             1 RES     
     773 Si          14.7390    29.3710    39.6030 Si            1 RES     
     774 O           37.0250    37.2540    24.1080 O             1 RES     
     775 OS          36.3880    35.5270    38.4640 OS            1 RES     
     776 Si          18.4140    41.1430    32.6590 Si            1 RES     
     777 O            7.1230    24.2720    26.3130 O             1 RES     
     778 OS          41.0280    36.6790    28.5740 OS            1 RES     
     779 Si          13.7110    38.9640    30.2100 Si            1 RES     
     780 O           15.0490    17.8340    27.2160 O             1 RES     
     781 Si          23.7280    22.6070    44.2660 Si            1 RES     
     782 OS          35.6950    13.5660    38.6700 OS            1 RES     
     783 Si          29.4630    21.8880    26.5750 Si            1 RES     
     784 O           18.8310    39.2810    28.0270 O             1 RES     
     785 O           27.8640    24.7370    28.9750 O             1 RES     
     786 Si          34.8180    19.2540    37.3880 Si            1 RES     
     787 O            8.9690    16.6740    30.4180 O             1 RES     
     788 Si          13.4250    24.2840    32.4380 Si            1 RES     
     789 O           21.0240    24.6400    37.3180 O             1 RES     
     790 Si          28.8070    19.4510    31.4610 Si            1 RES     
     791 Si          25.1740    27.2110    33.0790 Si            1 RES     
     792 Si          31.9050    16.6900    27.2150 Si            1 RES     
     793 O           21.8560    44.7180    25.8420 O             1 RES     
     794 Si          20.3070    24.7460    29.8520 Si            1 RES     
     795 OS          23.4110    36.7150    42.8810 OS            1 RES     
     796 O           23.5190    15.7460    33.7620 O             1 RES     
     797 O           30.4310    35.0220    25.7850 O             1 RES     
     798 O           15.6850    29.7010    38.4560 O             1 RES     
     799 O           22.4860    21.6800    44.3760 O             1 RES     
     800 Si          19.1890    36.8210    34.2250 Si            1 RES     
     801 O           18.2450    36.2320    26.7080 O             1 RES     
     802 O           23.5120    37.7170    26.8960 O             1 RES     
     803 OS          20.0640    10.3460    38.5240 OS            1 RES     
     804 Si          16.9980    14.1760    32.2600 Si            1 RES     
     805 O           25.9960    13.5130    26.5640 O             1 RES     
     806 O           26.6700    19.7830    28.1040 O             1 RES     
     807 O           15.1480    20.7410    39.3540 O             1 RES     
     808 O           24.3080    32.5480    40.2890 O             1 RES     
     809 O           41.1330    21.6160    31.2760 O             1 RES     
     810 Si          23.8150    35.5270    41.9060 Si            1 RES     
     811 OS          24.3650    22.6800    45.6870 OS            1 RES     
     812 Si           8.0050    16.4100    26.2930 Si            1 RES     
     813 Si          15.1570    33.4620    25.0150 Si            1 RES     
     814 O           18.1010    17.1870    37.3680 O             1 RES     
     815 Si          10.4630    26.4380    25.2820 Si            1 RES     
     816 OS           8.0270    29.5510    31.7380 OS            1 RES     
     817 O           29.7130    30.7790    30.0850 O             1 RES     
     818 Si          17.9960    23.2060    32.9580 Si            1 RES     
     819 O           23.3300    31.3060    42.4160 O             1 RES     
     820 Si          17.5650    25.0000    26.0860 Si            1 RES     
     821 O           32.8190    40.1150    31.6140 O             1 RES     
     822 Si          16.4620    29.0030    29.9100 Si            1 RES     
     823 O           20.5270    14.0990    33.1620 O             1 RES     
     824 O           18.0260    37.7920    34.5660 O             1 RES     
     825 Si          26.2290    15.1510    38.4700 Si            1 RES     
     826 O           11.2290    16.9010    26.7610 O             1 RES     
     827 O           14.0010    27.1980    24.8300 O             1 RES     
     828 O           27.5770    21.4270    36.2240 O             1 RES     
     829 O           26.4330    22.3670    28.5610 O             1 RES     
     830 O           27.9260    34.5290    32.3900 O             1 RES     
     831 Si          22.0300    10.8360    34.9930 Si            1 RES     
     832 Si          27.4500    25.8910    41.3110 Si            1 RES     
     833 Si          19.7100    35.0670    29.8110 Si            1 RES     
     834 O           21.5970     9.3040    25.9910 O             1 RES     
     835 O           21.1000    12.8120    38.3940 O             1 RES     
     836 O           23.6060    35.5350    37.4590 O             1 RES     
     837 O           22.3790     7.3980    31.3010 O             1 RES     
     838 O           17.9350    20.1530    29.7170 O             1 RES     
     839 OS          23.8150    26.4870    44.0560 OS            1 RES     
     840 O           38.8390    28.2040    31.6530 O             1 RES     
     841 O           37.0520    25.9640    29.3890 O             1 RES     
     842 O           21.5390    22.5180    33.4260 O             1 RES     
     843 OS          12.6460    38.7280    31.3550 OS            1 RES     
     844 Si          27.9790    37.2120    30.6300 Si            1 RES     
     845 Si           8.3800    15.6770    29.2530 Si            1 RES     
     846 Si          22.8770    25.4890    34.5280 Si            1 RES     
     847 O           18.6450    34.6530    30.8990 O             1 RES     
     848 Si          28.4610     7.0950    27.7750 Si            1 RES     
     849 O           16.8490    19.1340    27.7530 O             1 RES     
     850 O           31.6210    15.4590    34.4640 O             1 RES     
     851 O           33.2070    37.9080    32.9370 O             1 RES     
     852 Si          15.4130    37.2050    31.9230 Si            1 RES     
     853 O           16.3120    16.7280    35.8540 O             1 RES     
     854 Si          29.5150    11.9100    27.9610 Si            1 RES     
     855 O           27.4430    12.1760    36.3560 O             1 RES     
     856 OS          39.5960    16.5680    36.0200 OS            1 RES     
     857 OS          35.8500    25.4090    43.0230 OS            1 RES     
     858 Si          29.6370    33.3500    36.1220 Si            1 RES     
     859 O           31.2380    28.5870    32.5740 O             1 RES     
     860 OS          16.5510     5.7410    26.9320 OS            1 RES     
     861 Si          30.5690    19.9660    38.8490 Si            1 RES     
     862 Si          10.5580    17.9120    25.8570 Si            1 RES     
     863 O           34.3340    40.6990    29.6360 O             1 RES     
     864 O           20.4720    40.5860    29.0210 O             1 RES     
     865 Si          14.6570    32.4890    34.8690 Si            1 RES     
     866 O           17.9860    32.5680    35.2410 O             1 RES     
     867 O           16.3850    24.5490    40.8720 O             1 RES     
     868 O           22.0760    19.1420    32.7480 O             1 RES     
     869 Si           8.1320    22.5920    31.0990 Si            1 RES     
     870 O           13.9970    28.0380    32.4320 O             1 RES     
     871 Si          10.8860    28.8040    34.1620 Si            1 RES     
     872 O           19.6750    29.0410    41.8450 O             1 RES     
     873 O           15.0360    13.0970    26.7440 O             1 RES     
     874 O           21.0450    38.1520    36.4740 O             1 RES     
     875 O           34.5550    23.8220    32.6710 O             1 RES     
     876 O           23.6830    24.3620    35.3170 O             1 RES     
     877 Si          12.2260    15.9840    27.5400 Si            1 RES     
     878 O           35.3300    13.6870    32.2250 O             1 RES     
     879 O           23.4000    31.4240    26.4500 O             1 RES     
     880 O           13.5540    15.8770    26.6910 O             1 RES     
     881 O           17.0490    27.8790    33.7920 O             1 RES     
     882 Si          14.2090    21.9650    39.2600 Si            1 RES     
     883 O           34.4580    29.1070    36.6930 O             1 RES     
     884 O           26.4110    13.4890    38.4110 O             1 RES     
     885 Si          34.7790    39.6730    25.9000 Si            1 RES     
     886 O           30.8040    34.1820    36.8930 O             1 RES     
     887 O           26.0440    26.6910    41.2950 O             1 RES     
     888 Si          21.4260    26.2260    37.1430 Si            1 RES     
     889 OS          37.9700    38.0100    34.4480 OS            1 RES     
     890 OS          45.1070    24.4740    29.6190 OS            1 RES     
     891 O           22.7890    10.9460    38.5110 O             1 RES     
     892 OS          19.3190     8.1950    34.6620 OS            1 RES     
     893 O           30.7660    15.6640    27.6070 O             1 RES     
     894 O           37.8460    24.5910    27.6850 O             1 RES     
     895 O           22.3190    24.8620    25.1920 O             1 RES     
     896 Si          20.4060    27.9720    40.9370 Si            1 RES     
     897 O           36.2210    18.8150    36.6380 O             1 RES     
     898 O           31.1600    30.7210    27.8130 O             1 RES     
     899 OS          19.6340    39.8400    37.3010 OS            1 RES     
     900 O           10.8820    27.5040    26.3830 O             1 RES     
     901 O           10.4060    21.4140    27.6250 O             1 RES     
     902 O           12.6180    29.3000    30.6200 O             1 RES     
     903 Si          32.8710    31.5090    34.0170 Si            1 RES     
     904 Si          13.0200    11.9170    32.7090 Si            1 RES     
     905 Si          26.2120    19.4220    33.0610 Si            1 RES     
     906 O           23.5130    17.2190    31.8330 O             1 RES     
     907 O           27.5550    19.0000    32.3090 O             1 RES     
     908 O           42.2600    21.8270    29.0210 O             1 RES     
     909 O           20.7400    22.6090    35.8030 O             1 RES     
     910 Si          24.3520    10.6570    38.7730 Si            1 RES     
     911 O           27.5000    41.9210    27.2930 O             1 RES     
     912 O           25.2960    25.8960    24.9570 O             1 RES     
     913 Si          34.4220    36.8620    32.6210 Si            1 RES     
     914 O           43.3950    27.3670    33.1140 O             1 RES     
     915 Si          21.1260    18.8720    33.9580 Si            1 RES     
     916 O           20.8690    24.0280    31.1420 O             1 RES     
     917 O           19.5220    35.5690    35.1080 O             1 RES     
     918 OS          16.4920    10.3810    34.1790 OS            1 RES     
     919 O           14.2770    23.1140    40.3890 O             1 RES     
     920 O           29.5060    26.1850    27.7150 O             1 RES     
     921 O           20.6990    39.9640    26.4230 O             1 RES     
     922 O           29.4930    20.4330    37.7280 O             1 RES     
     923 Si          24.5060    21.6140    25.4230 Si            1 RES     
     924 O           23.5650    37.1110    30.9800 O             1 RES     
     925 O           35.0240    31.6390    29.5340 O             1 RES     
     926 O           24.3990     6.0710    27.6420 O             1 RES     
     927 O           33.5150    20.9090    34.2470 O             1 RES     
     928 O           28.8190    33.8260    24.4800 O             1 RES     
     929 O           16.6830    22.9930    42.8660 O             1 RES     
     930 Si          39.4120    14.4740    29.4630 Si            1 RES     
     931 OS          31.8290     8.8170    34.2310 OS            1 RES     
     932 O           31.3720    18.9980    37.9130 O             1 RES     
     933 Si          19.6760    30.5900    32.7730 Si            1 RES     
     934 O            7.9710    25.9650    28.0610 O             1 RES     
     935 O           16.5080    36.0910    31.7110 O             1 RES     
     936 O           42.6380    27.8560    24.7850 O             1 RES     
     937 Si          35.1450    37.0430    29.6680 Si            1 RES     
     938 O           30.0750    14.8900    25.0810 O             1 RES     
     939 O           10.2350    29.5940    30.3510 O             1 RES     
     940 Si          34.1660    32.4000    38.5820 Si            1 RES     
     941 O           28.6080    40.4650    32.6810 O             1 RES     
     942 O           13.1270    32.2650    34.3130 O             1 RES     
     943 O           24.5450    33.5870    32.4200 O             1 RES     
     944 O           21.5830    28.5590    40.0710 O             1 RES     
     945 O           32.7320    30.5600    32.7360 O             1 RES     
     946 Si          16.3090    15.3340    39.4890 Si            1 RES     
     947 O           17.2560    10.1940    28.7530 O             1 RES     
     948 O           21.8390    32.4120    40.8790 O             1 RES     
     949 Si          18.2940    31.7820    36.6100 Si            1 RES     
     950 OS           9.5820    18.3790    35.3090 OS            1 RES     
     951 Si          21.8580    44.1850    27.3200 Si            1 RES     
     952 O           26.9680     6.7020    27.6130 O             1 RES     
     953 O           27.2800    20.5370    38.7430 O             1 RES     
     954 O           42.3040    19.3430    34.4860 O             1 RES     
     955 Si          14.6660    21.1610    29.7470 Si            1 RES     
     956 O           31.2210    17.9720    26.6540 O             1 RES     
     957 O           20.5040    30.7890    31.4550 O             1 RES     
     958 OS          39.0460    15.5990    33.9240 OS            1 RES     
     959 Si          18.1660    13.0540    35.9030 Si            1 RES     
     960 O           36.7480    36.5580    26.5980 O             1 RES     
     961 OS          38.0010    11.9450    36.4320 OS            1 RES     
     962 O           29.8830    41.9090    31.2590 O             1 RES     
     963 O           32.4560    13.0370    37.3580 O             1 RES     
     964 O           33.1520    40.0280    26.0440 O             1 RES     
     965 OS           6.8570    15.4210    29.4850 OS            1 RES     
     966 Si          19.7140    23.1690    27.2980 Si            1 RES     
     967 O           26.1240    15.5840    27.8650 O             1 RES     
     968 Si          18.9840    11.2550    25.1950 Si            1 RES     
     969 O           24.8640    33.2170    25.6520 O             1 RES     
     970 OS          17.7770    25.2130    42.7770 OS            1 RES     
     971 O           38.2170    31.5080    26.8440 O             1 RES     
     972 O           23.3910     5.3950    25.3410 O             1 RES     
     973 O           20.5840    13.1730    30.8570 O             1 RES     
     974 O           25.9880    26.9320    27.2930 O             1 RES     
     975 O           30.7490    24.9720    44.6190 O             1 RES     
     976 O            8.3160    16.2410    27.8280 O             1 RES     
     977 O           21.0150    28.7930    29.8370 O             1 RES     
     978 O           11.0070    18.7420    31.0020 O             1 RES     
     979 O           25.4240    42.9740    26.6620 O             1 RES     
     980 O           25.2980    41.3740    28.5700 O             1 RES     
     981 Si          41.4230    25.2620    29.1030 Si            1 RES     
     982 O           33.0560    10.1470    27.4500 O             1 RES     
     983 Si          12.6350    32.9370    29.2080 Si            1 RES     
     984 Si          15.5470    19.2640    39.5660 Si            1 RES     
     985 O           24.8780    15.7170    37.8450 O             1 RES     
     986 O           38.4700    15.7630    29.5260 O             1 RES     
     987 O           31.3580    17.4260    35.9880 O             1 RES     
     988 OS          13.5180    10.4410    32.5080 OS            1 RES     
     989 Si          18.4390    16.4280    30.8100 Si            1 RES     
     990 O           20.3420    23.8010    28.5940 O             1 RES     
     991 O           19.3960    31.4550    41.5460 O             1 RES     
     992 O           24.8780    35.9500    25.9320 O             1 RES     
     993 Si          29.7300    14.6370    26.6330 Si            1 RES     
     994 O           27.0820    29.2070    28.1020 O             1 RES     
     995 Si          29.5330    33.7400    25.9420 Si            1 RES     
     996 Si          17.8440     6.6450    27.0230 Si            1 RES     
     997 O           20.8910    27.7790    27.5270 O             1 RES     
     998 Si          24.7340    40.7420    32.2130 Si            1 RES     
     999 O           28.7120    27.5110    37.4980 O             1 RES     
    1000 O           19.9500    34.0360    28.7150 O             1 RES     
    1001 O           17.7380    30.4450    24.2960 O             1 RES     
    1002 O           28.8410    12.3450    29.3280 O             1 RES     
    1003 O           19.6910    36.4350    24.5580 O             1 RES     
    1004 O           36.8730    22.5890    27.0920 O             1 RES     
    1005 Si          40.8130    30.8500    33.3190 Si            1 RES     
    1006 O           13.1100    38.8050    28.7640 O             1 RES     
    1007 O            9.4810    24.3150    33.4120 O             1 RES     
    1008 O           16.8190    30.6630    26.6380 O             1 RES     
    1009 Si          18.0350    11.4690    28.1150 Si            1 RES     
    1010 O           36.1540    16.0530    38.4140 O             1 RES     
    1011 O           39.4980    25.3680    32.2750 O             1 RES     
    1012 O           28.4950    38.3610    31.5840 O             1 RES     
    1013 O           28.4010     8.3550    31.5690 O             1 RES     
    1014 Si          13.7980    13.6090    35.3430 Si            1 RES     
    1015 O            8.8810    23.4660    27.6060 O             1 RES     
    1016 O           34.9250     8.6350    27.3910 O             1 RES     
    1017 O           29.5400    34.1220    30.7370 O             1 RES     
    1018 Si          15.6410    26.7090    27.9590 Si            1 RES     
    1019 O           39.6580    27.1570    33.9580 O             1 RES     
    1020 O            4.9370    29.0720    25.4500 O             1 RES     
    1021 O           39.8940    24.8540    29.3760 O             1 RES     
    1022 O           25.6300    30.2360    42.8420 O             1 RES     
    1023 O           17.6790    16.1370    39.4770 O             1 RES     
    1024 Si          24.9470    39.0670    38.5240 Si            1 RES     
    1025 O           24.8910    37.1660    33.0460 O             1 RES     
    1026 Si          36.6610    27.6840    40.3480 Si            1 RES     
    1027 O           29.6970    28.6930    39.5530 O             1 RES     
    1028 O           10.0860    27.3170    23.9270 O             1 RES     
    1029 O           27.5760    24.9070    42.5560 O             1 RES     
    1030 Si          43.2390    21.1560    25.5790 Si            1 RES     
    1031 O           19.6420    41.2830    33.5960 O             1 RES     
    1032 Si          31.2120    30.8680    29.4740 Si            1 RES     
    1033 O           24.2520    20.5580    28.7590 O             1 RES     
    1034 O           14.7980    20.3850    28.3860 O             1 RES     
    1035 O           14.8910    16.0980    39.6950 O             1 RES     
    1036 O           36.0790    20.9680    40.2160 O             1 RES     
    1037 Si          21.4810    21.4810    39.2000 Si            1 RES     
    1038 OS          10.6290    16.1400    35.2790 OS            1 RES     
    1039 Si          11.7480    31.7680    34.9690 Si            1 RES     
    1040 O           22.5500    15.1660    24.6090 O             1 RES     
    1041 Si          16.3260    27.2470    35.0530 Si            1 RES     
    1042 Si          24.2810     8.7170    34.2130 Si            1 RES     
    1043 Si          21.6780    38.5340    35.0500 Si            1 RES     
    1044 Si          15.5470    41.3740    29.7150 Si            1 RES     
    1045 OS           6.5590    27.9430    28.9770 OS            1 RES     
    1046 O           27.1650    39.5340    28.0710 O             1 RES     
    1047 O           29.7440    23.3910    31.8980 O             1 RES     
    1048 Si          24.9710    37.6830    31.5430 Si            1 RES     
    1049 O           18.3610    12.5350    24.4280 O             1 RES     
    1050 O           18.6590    36.2120    32.9180 O             1 RES     
    1051 O           33.0050    24.7400    34.4670 O             1 RES     
    1052 O           14.3470    19.2960    34.6720 O             1 RES     
    1053 O           25.6680    30.8460    26.4810 O             1 RES     
    1054 O           30.6730    11.1370    33.8030 O             1 RES     
    1055 O           36.2180    26.1900    40.7220 O             1 RES     
    1056 O           23.1040    15.9180    41.6340 O             1 RES     
    1057 Si          13.2940    32.5320    37.5110 Si            1 RES     
    1058 O           14.9940    29.2730    30.3870 O             1 RES     
    1059 O           37.3680    17.6410    28.0710 O             1 RES     
    1060 O           23.6500    13.3610    27.6510 O             1 RES     
    1061 O           34.1510    31.2140    34.8000 O             1 RES     
    1062 O           25.1360    11.1290    27.9040 O             1 RES     
    1063 O           38.2280    29.4610    25.5240 O             1 RES     
    1064 O           24.8820    30.0920    36.3540 O             1 RES     
    1065 O           30.7310    38.8210    32.7610 O             1 RES     
    1066 OS          20.3250    44.1480    27.7760 OS            1 RES     
    1067 O           21.0690    21.9310    40.6090 O             1 RES     
    1068 O           25.0020    20.8540    39.1380 O             1 RES     
    1069 O           35.2980    24.3200    26.9910 O             1 RES     
    1070 Si          16.2760    15.3460    35.0010 Si            1 RES     
    1071 O           22.3530    14.9640    31.5910 O             1 RES     
    1072 Si          39.7870    21.4170    32.0390 Si            1 RES     
    1073 O           26.5970    20.8660    33.5150 O             1 RES     
    1074 Si          23.6520    34.9900    35.9110 Si            1 RES     
    1075 Si          32.5480    21.9550    40.2100 Si            1 RES     
    1076 Si          24.3300    22.9330    35.5690 Si            1 RES     
    1077 O           21.0320    26.8290    41.7900 O             1 RES     
    1078 OS          10.9060    38.8740    27.3330 OS            1 RES     
    1079 O           31.3050    27.4240    37.7700 O             1 RES     
    1080 O           26.6920    41.0970    24.8580 O             1 RES     
    1081 O           34.4820    14.4860    27.5250 O             1 RES     
    1082 Si          35.9780    17.8410    31.1280 Si            1 RES     
    1083 O           28.3570    32.1470    31.6030 O             1 RES     
    1084 O           13.8440    34.1100    37.4870 O             1 RES     
    1085 O           14.2890    22.6600    37.8790 O             1 RES     
    1086 O           10.0240    34.7830    29.4610 O             1 RES     
    1087 O           30.3920    29.5690    37.2220 O             1 RES     
    1088 O           31.4520    15.1780    36.9780 O             1 RES     
    1089 O           25.1740    21.4510    26.7730 O             1 RES     
    1090 Si          14.9430    24.2560    29.7220 Si            1 RES     
    1091 O           15.6040    31.9750    24.8430 O             1 RES     
    1092 O           28.6930    22.9900    27.3820 O             1 RES     
    1093 Si           8.5300    35.5340    26.1500 Si            1 RES     
    1094 Si          26.2230    25.8580    26.1940 Si            1 RES     
    1095 Si          26.2050    20.1580    39.8630 Si            1 RES     
    1096 O           14.8650    22.7340    29.3730 O             1 RES     
    1097 O           18.3230    32.8450    37.7650 O             1 RES     
    1098 OS          10.3740    12.4500    27.3090 OS            1 RES     
    1099 O           21.0790    42.2410    30.8580 O             1 RES     
    1100 O           39.4970    22.8030    32.6540 O             1 RES     
    1101 O            9.4640    25.4220    25.9670 O             1 RES     
    1102 OS           9.8430    28.5660    35.3520 OS            1 RES     
    1103 O           11.3610    29.1430    28.2570 O             1 RES     
    1104 O           26.3640    34.2520    27.2440 O             1 RES     
    1105 O           25.3760    28.1920    29.5690 O             1 RES     
    1106 O           25.0480    34.4270    38.9350 O             1 RES     
    1107 O            8.6550    27.5850    30.3620 O             1 RES     
    1108 O           21.5190    40.0170    34.5440 O             1 RES     
    1109 O           21.0690    32.2540    27.2020 O             1 RES     
    1110 O           16.9570    39.6180    26.4410 O             1 RES     
    1111 Si          18.2100    18.6230    33.0270 Si            1 RES     
    1112 O           26.0810    41.2570    31.7580 O             1 RES     
    1113 Si          24.3130    35.8640    38.8550 Si            1 RES     
    1114 O           14.1530    36.1590    35.7750 O             1 RES     
    1115 O           38.5070    20.8790    31.2390 O             1 RES     
    1116 O           16.0490    24.4220    37.2740 O             1 RES     
    1117 Si          11.0980    20.9070    26.2110 Si            1 RES     
    1118 Si           6.6200    23.1280    25.3400 Si            1 RES     
    1119 O            8.0240    31.1450    26.5320 O             1 RES     
    1120 Si          30.2070    38.5080    25.9600 Si            1 RES     
    1121 O           15.8670    12.4530    24.4350 O             1 RES     
    1122 O           37.6150    34.2730    27.3860 O             1 RES     
    1123 Si          32.0170    18.7120    36.5420 Si            1 RES     
    1124 O           33.7380    27.0610    38.1800 O             1 RES     
    1125 O           17.0820    28.8630    31.3500 O             1 RES     
    1126 O           14.6820    23.3990    35.5570 O             1 RES     
    1127 O           13.9430    33.6890    28.6680 O             1 RES     
    1128 OS          43.2150    29.1780    31.3400 OS            1 RES     
    1129 Si          14.4360    13.7880    30.7500 Si            1 RES     
    1130 Si          30.1020    12.4810    33.2280 Si            1 RES     
    1131 O           12.7750    32.3730    39.0260 O             1 RES     
    1132 O           12.2850    36.7230    33.8960 O             1 RES     
    1133 Si          28.3050    11.9050    30.7650 Si            1 RES     
    1134 Si          22.7560    28.2880    38.9900 Si            1 RES     
    1135 O           28.2110    10.3820    30.3240 O             1 RES     
    1136 O           24.0390    32.0020    37.8050 O             1 RES     
    1137 O           10.1760    28.6100    32.6410 O             1 RES     
    1138 OS          11.7860    36.3010    36.3620 OS            1 RES     
    1139 O           24.1970    33.7340    35.0950 O             1 RES     
    1140 Si          33.4970    14.3330    26.0100 Si            1 RES     
    1141 O           30.7710    39.9690    26.4380 O             1 RES     
    1142 Si          33.1700    24.6680    32.9000 Si            1 RES     
    1143 O           21.9260     8.7380    28.7820 O             1 RES     
    1144 O            9.0830    17.5280    25.9400 O             1 RES     
    1145 O           28.4760    38.3050    34.0650 O             1 RES     
    1146 O           14.3690    25.7140    39.8070 O             1 RES     
    1147 Si          28.2170    33.1350    42.2400 Si            1 RES     
    1148 O           33.7780    36.5270    29.0310 O             1 RES     
    1149 Si          28.0730    26.4710    33.7050 Si            1 RES     
    1150 O           13.2210    25.6790    33.1880 O             1 RES     
    1151 O           22.1430    18.4870    24.0320 O             1 RES     
    1152 O           29.3950    30.0740    32.4900 O             1 RES     
    1153 O           35.9260    13.3590    29.1480 O             1 RES     
    1154 OS          39.6970    38.6640    28.0380 OS            1 RES     
    1155 O           18.3570    31.3860    32.9610 O             1 RES     
    1156 O           15.5470    14.1830    31.7450 O             1 RES     
    1157 O           20.8470    19.6300    26.0890 O             1 RES     
    1158 O           30.1070    31.9100    35.8300 O             1 RES     
    1159 O           21.0710    24.0350    42.0580 O             1 RES     
    1160 Si          36.7720    34.0830    38.1140 Si            1 RES     
    1161 Si          14.6520     9.2940    26.2620 Si            1 RES     
    1162 O           15.2240    33.7740    26.5270 O             1 RES     
    1163 Si          24.6240    31.6360    25.6000 Si            1 RES     
    1164 O           25.2980    38.6860    25.3940 O             1 RES     
    1165 OS           6.3370    32.7020    29.6000 OS            1 RES     
    1166 O           24.5210    27.1530    31.5940 O             1 RES     
    1167 O           17.5730    39.8330    33.0370 O             1 RES     
    1168 O           27.8150    30.0820    25.7780 O             1 RES     
    1169 Si          32.4250    29.2870    31.7940 Si            1 RES     
    1170 Si          27.2420    30.3220    42.6820 Si            1 RES     
    1171 OS          23.7920    31.0710    44.7250 OS            1 RES     
    1172 Si          20.5890    12.0370    29.7780 Si            1 RES     
    1173 OS          24.4880    43.7860    29.1040 OS            1 RES     
    1174 O           30.0350    29.4440    34.7700 O             1 RES     
    1175 OS           5.5370    21.0170    28.2870 OS            1 RES     
    1176 O           15.6180    21.2200    34.4550 O             1 RES     
    1177 O           42.1700    23.3950    35.1850 O             1 RES     
    1178 O           41.2230    27.4890    31.9980 O             1 RES     
    1179 O           20.5920    30.8710    33.9970 O             1 RES     
    1180 Si          15.3310    22.7560    34.2780 Si            1 RES     
    1181 O           18.3020    17.2960    32.1940 O             1 RES     
    1182 O           12.5990    14.5620    35.8010 O             1 RES     
    1183 O           13.3750    20.4480    30.4130 O             1 RES     
    1184 O           37.5660    12.4540    25.5820 O             1 RES     
    1185 O           14.4060    32.0490    36.4360 O             1 RES     
    1186 Si          17.4710    11.3210    33.4760 Si            1 RES     
    1187 O           33.7480    23.0730    35.7600 O             1 RES     
    1188 O           28.9250    27.7160    33.5430 O             1 RES     
    1189 Si          16.8090    29.2030    37.4010 Si            1 RES     
    1190 O           27.5090    35.9790    34.7280 O             1 RES     
    1191 Si          16.6730    17.7820    36.9480 Si            1 RES     
    1192 O           16.1620    34.4580    24.3330 O             1 RES     
    1193 Si          28.9750     8.9200    30.2330 Si            1 RES     
    1194 OS          41.5490    34.2630    27.7820 OS            1 RES     
    1195 Si          26.2460    24.8240    38.7440 Si            1 RES     
    1196 O           23.2220    29.5890    38.3150 O             1 RES     
    1197 O           21.0150    10.0140    34.1310 O             1 RES     
    1198 O           39.9860    17.4680    29.1300 O             1 RES     
    1199 O           27.7350    26.3000    25.8370 O             1 RES     
    1200 Si          19.8670    38.3030    37.5870 Si            1 RES     
    1201 Si          37.5240    11.4910    26.8000 Si            1 RES     
    1202 O           16.8370    15.1480    33.5010 O             1 RES     
    1203 Si          34.4600    13.7790    29.0150 Si            1 RES     
    1204 O           11.2640    23.3550    38.8080 O             1 RES     
    1205 O           12.2170    31.3690    29.4860 O             1 RES     
    1206 O           20.0380    26.9140    37.4060 O             1 RES     
    1207 O            5.7650    26.5740    24.2440 O             1 RES     
    1208 O           32.2190    19.2320    32.9820 O             1 RES     
@<TRIPOS>BOND
       1      420      489 1
       2       63     1060 1
       3      120      497 1
       4       31      576 1
       5      262      834 1
       6      722      937 1
       7      387      409 1
       8      590      955 1
       9      587      831 1
      10      975     1075 1
      11      754     1114 1
      12      561      781 1
      13       69      894 1
      14      347      810 1
      15      255      332 1
      16      455      528 1
      17      431      739 1
      18       83      267 1
      19      154      672 1
      20      258     1075 1
      21      370      619 1
      22      145      690 1
      23      495     1030 1
      24      106      978 1
      25      160      485 1
      26      239      862 1
      27      714      902 1
      28      141      258 1
      29      599      830 1
      30      612      806 1
      31      596      649 1
      32      790      907 1
      33      209      786 1
      34      316      541 1
      35      891      910 1
      36      350      596 1
      37       89      162 1
      38      707      884 1
      39      261      443 1
      40      293      854 1
      41       73      338 1
      42      516      715 1
      43      140      443 1
      44      433      554 1
      45      733     1195 1
      46      720      819 1
      47      184     1004 1
      48      222      753 1
      49      369      979 1
      50      553      767 1
      51      349      639 1
      52       61      225 1
      53      309     1063 1
      54       70     1044 1
      55      186      237 1
      56      178     1008 1
      57      536      984 1
      58      607      810 1
      59      103      666 1
      60      193      551 1
      61      447     1088 1
      62      130      641 1
      63      437     1155 1
      64      179      659 1
      65      398      440 1
      66      345      591 1
      67      571      698 1
      68      632     1018 1
      69      439      673 1
      70      107      939 1
      71      776     1031 1
      72       38      229 1
      73      738     1136 1
      74      221      821 1
      75      281      291 1
      76      112     1158 1
      77      966      990 1
      78      493      909 1
      79     1054     1130 1
      80       47      266 1
      81      845      976 1
      82      351      732 1
      83      221      667 1
      84      628     1172 1
      85      230      960 1
      86      691     1014 1
      87      411      661 1
      88      438      783 1
      89       77     1113 1
      90      696      790 1
      91      336      402 1
      92      350      856 1
      93      184      652 1
      94      131      154 1
      95      569      678 1
      96      475      514 1
      97       29       57 1
      98      474      869 1
      99      836     1074 1
     100      119      435 1
     101      150      224 1
     102      738     1196 1
     103      159      803 1
     104      717      981 1
     105      321     1114 1
     106      236      788 1
     107      163      802 1
     108      228      355 1
     109       71      197 1
     110      404     1014 1
     111      315     1018 1
     112      478      844 1
     113      125     1118 1
     114      681      996 1
     115      666     1198 1
     116      798     1189 1
     117      274      343 1
     118       84      654 1
     119      507      852 1
     120      493      842 1
     121      707      855 1
     122      807      882 1
     123        7      750 1
     124      378      497 1
     125      826      877 1
     126       61      828 1
     127      603      684 1
     128      133     1018 1
     129      190      277 1
     130      479     1032 1
     131      692      700 1
     132      303      416 1
     133      122      799 1
     134      792      893 1
     135      318      790 1
     136      584     1100 1
     137      729      832 1
     138      339      390 1
     139      781      811 1
     140     1057     1084 1
     141      165      219 1
     142      347     1113 1
     143      530      647 1
     144       76      701 1
     145      239     1117 1
     146      107     1137 1
     147      384      581 1
     148      859     1169 1
     149      510      909 1
     150      104      840 1
     151      294      801 1
     152       77     1024 1
     153     1026     1055 1
     154      316      604 1
     155       47     1199 1
     156      136      531 1
     157       22     1186 1
     158      452      500 1
     159      436     1161 1
     160      287     1008 1
     161      149      194 1
     162      671      759 1
     163      775     1160 1
     164      807      984 1
     165      504      812 1
     166      461      609 1
     167       17      306 1
     168      376      767 1
     169      746      825 1
     170      319     1117 1
     171      162      548 1
     172      321      453 1
     173      205      348 1
     174      627      629 1
     175      641      733 1
     176      631     1042 1
     177      170      829 1
     178      343      511 1
     179      102      694 1
     180      556      686 1
     181      326      984 1
     182      688     1026 1
     183       69     1004 1
     184      521      930 1
     185      286     1203 1
     186      168      700 1
     187      853     1070 1
     188       68      486 1
     189      433      943 1
     190        2      513 1
     191      164      553 1
     192      406     1109 1
     193      203      927 1
     194      265      643 1
     195      396      485 1
     196     1176     1180 1
     197      716      719 1
     198      486      925 1
     199      804     1156 1
     200      949     1097 1
     201      150      983 1
     202       31      337 1
     203     1134     1196 1
     204      512     1129 1
     205      438      563 1
     206      160      456 1
     207      464      783 1
     208      434      887 1
     209      959     1182 1
     210      502      802 1
     211      945     1169 1
     212      199      502 1
     213      465     1041 1
     214      641     1068 1
     215       97      583 1
     216      792      956 1
     217      680     1012 1
     218       82      767 1
     219      418      844 1
     220      356      992 1
     221      259      341 1
     222      202      535 1
     223      198      210 1
     224       42       87 1
     225       43     1206 1
     226      586      639 1
     227      237      442 1
     228      221     1065 1
     229      159      891 1
     230      388     1194 1
     231      255      333 1
     232      548      776 1
     233       89     1044 1
     234      472     1119 1
     235      501     1039 1
     236       94     1189 1
     237       72      455 1
     238       45      898 1
     239      290      739 1
     240        2     1207 1
     241      193      875 1
     242       50      159 1
     243      133      820 1
     244      267      695 1
     245      836     1113 1
     246      243      287 1
     247      277      717 1
     248      115      737 1
     249     1129     1156 1
     250      423      859 1
     251      680      941 1
     252      106      517 1
     253      577     1023 1
     254      215     1074 1
     255       12      476 1
     256      256      329 1
     257      575      779 1
     258       10      982 1
     259      193      416 1
     260      488      923 1
     261      520      822 1
     262      128      937 1
     263      434      547 1
     264      231      278 1
     265      726     1015 1
     266      600     1070 1
     267      758      854 1
     268      366      426 1
     269      136      217 1
     270      779     1006 1
     271      114      137 1
     272       73      905 1
     273      711     1108 1
     274      228      331 1
     275       97     1062 1
     276      408     1178 1
     277      320      325 1
     278      320      694 1
     279      200     1203 1
     280      615      636 1
     281      385     1079 1
     282      363      518 1
     283      373     1197 1
     284      203      665 1
     285        5      633 1
     286      638      863 1
     287       15     1140 1
     288      542      784 1
     289      769     1149 1
     290       26     1076 1
     291      638      821 1
     292      136      187 1
     293      349      855 1
     294      288      298 1
     295      672     1093 1
     296       57      207 1
     297       18     1094 1
     298       14      609 1
     299      336      623 1
     300      437      866 1
     301      300     1195 1
     302      813     1162 1
     303      630      712 1
     304      709     1150 1
     305      449      968 1
     306      714      939 1
     307       87      155 1
     308      156     1043 1
     309       16      827 1
     310      523     1005 1
     311      569      661 1
     312      480     1093 1
     313      592     1059 1
     314      955     1183 1
     315      550      625 1
     316      356      764 1
     317      389     1064 1
     318      141      697 1
     319      159      835 1
     320       49     1099 1
     321       66      217 1
     322      421      493 1
     323      361      570 1
     324      640      844 1
     325      938      993 1
     326      598      908 1
     327      166      391 1
     328      718      894 1
     329      126      334 1
     330       45      484 1
     331      226     1119 1
     332      491     1147 1
     333      665      673 1
     334       57      924 1
     335      334      353 1
     336      427      711 1
     337        6      403 1
     338      127      623 1
     339      119      900 1
     340       83      211 1
     341      309      971 1
     342      726      901 1
     343      613     1159 1
     344      338      772 1
     345      402      835 1
     346      350      958 1
     347      269      989 1
     348     1057     1185 1
     349      259      738 1
     350      154      645 1
     351      351      652 1
     352       81      709 1
     353       85     1136 1
     354      443      708 1
     355       39      523 1
     356      166      539 1
     357      123     1047 1
     358      738     1064 1
     359     1074     1139 1
     360      765     1111 1
     361      222      380 1
     362      165      210 1
     363      426      507 1
     364      134      382 1
     365      209      556 1
     366      398      527 1
     367      533     1161 1
     368      944     1134 1
     369      147     1130 1
     370      397      953 1
     371      184      545 1
     372      396     1009 1
     373       45       93 1
     374      588     1090 1
     375      874     1043 1
     376      358      584 1
     377      112     1087 1
     378      640     1048 1
     379      287      644 1
     380      983     1127 1
     381      327      653 1
     382      368      745 1
     383      399     1033 1
     384      284     1026 1
     385      231      562 1
     386      479      537 1
     387      119     1103 1
     388      223      967 1
     389      904      988 1
     390      338      868 1
     391      454      569 1
     392       13      341 1
     393        8       41 1
     394      846      876 1
     395      307     1071 1
     396      582      670 1
     397      395     1058 1
     398      212      858 1
     399        7      941 1
     400      300      434 1
     401       94      949 1
     402     1072     1100 1
     403      401     1017 1
     404       90      559 1
     405      833      847 1
     406       76      616 1
     407      610     1093 1
     408      108      937 1
     409      192      444 1
     410       43       96 1
     411      692      743 1
     412      573      940 1
     413     1133     1135 1
     414       65      813 1
     415      543      571 1
     416      242      405 1
     417      106      787 1
     418      397      922 1
     419      485      512 1
     420      933     1179 1
     421      124     1082 1
     422     1002     1133 1
     423      524     1145 1
     424      228     1078 1
     425       16      352 1
     426      161      903 1
     427      701     1037 1
     428     1106     1113 1
     429       85      808 1
     430      901     1117 1
     431      524     1190 1
     432        3      565 1
     433      283     1130 1
     434      144      223 1
     435      285      534 1
     436      185      757 1
     437       40      886 1
     438      263      309 1
     439        8      997 1
     440       60      934 1
     441      459     1116 1
     442      494      791 1
     443      251      676 1
     444      149      926 1
     445      385      999 1
     446      178      352 1
     447      174      943 1
     448       63     1062 1
     449      852      935 1
     450      248      908 1
     451      432      490 1
     452     1090     1096 1
     453      110      929 1
     454      204      461 1
     455      711     1031 1
     456      240      725 1
     457       43      171 1
     458      107     1107 1
     459       49      205 1
     460       83      977 1
     461      861      932 1
     462      475      655 1
     463       80      253 1
     464      861      922 1
     465      549      732 1
     466      346      563 1
     467      316      723 1
     468      680     1145 1
     469       97      216 1
     470       42      869 1
     471      168      766 1
     472       76      127 1
     473      322      692 1
     474      163      687 1
     475      494      846 1
     476      373      892 1
     477      158      761 1
     478      256      464 1
     479        4      946 1
     480      294      471 1
     481      249      394 1
     482      425     1186 1
     483      401      541 1
     484       43      250 1
     485        2      763 1
     486      179      389 1
     487      522      820 1
     488       91      757 1
     489      171      459 1
     490      344      885 1
     491        8      558 1
     492       83      957 1
     493      198      492 1
     494      348      748 1
     495      399      772 1
     496       84      950 1
     497       86      985 1
     498      381      823 1
     499      423     1188 1
     500      365      728 1
     501      385     1087 1
     502      490      724 1
     503     1014     1182 1
     504      620     1141 1
     505      368      765 1
     506     1057     1131 1
     507      415      651 1
     508      326     1191 1
     509       29      833 1
     510       52      720 1
     511      739     1079 1
     512      321      637 1
     513      928      995 1
     514      497      975 1
     515      124      592 1
     516      432     1133 1
     517      381      973 1
     518      475      897 1
     519      273     1019 1
     520      107      816 1
     521      468     1046 1
     522     1120     1141 1
     523      689      726 1
     524      232      877 1
     525      736     1120 1
     526      354      444 1
     527      559     1120 1
     528      375      650 1
     529       46     1180 1
     530      804     1202 1
     531      341     1179 1
     532      625     1183 1
     533      227      998 1
     534       39      914 1
     535      202      842 1
     536       67      482 1
     537      102      782 1
     538      463     1095 1
     539      249     1153 1
     540      166     1148 1
     541      108      230 1
     542      289      771 1
     543      226      529 1
     544      178     1091 1
     545      518      519 1
     546      113      450 1
     547       55      761 1
     548      157      428 1
     549       66      721 1
     550      697      768 1
     551      636      722 1
     552      129      659 1
     553      709      870 1
     554       66      298 1
     555      425      804 1
     556      457      848 1
     557      111     1127 1
     558       88      688 1
     559      111      741 1
     560       84      363 1
     561      683     1007 1
     562       88     1124 1
     563      496      580 1
     564      468      980 1
     565      122      379 1
     566      224     1086 1
     567      167      982 1
     568      606     1090 1
     569      768      857 1
     570      295     1005 1
     571      207      502 1
     572       40      679 1
     573      395      902 1
     574      420      502 1
     575      893      993 1
     576      111      471 1
     577      440     1208 1
     578      163      992 1
     579      489      801 1
     580      185      230 1
     581      111     1162 1
     582      879     1163 1
     583      621      659 1
     584       98     1134 1
     585      268     1142 1
     586      243      822 1
     587      199      542 1
     588       35      497 1
     589      387      991 1
     590      510      789 1
     591      198      991 1
     592      499     1024 1
     593       47      920 1
     594      860      996 1
     595      426      824 1
     596      489     1003 1
     597      332      412 1
     598      795      810 1
     599      297      783 1
     600      301      566 1
     601      334      380 1
     602      123      562 1
     603      989     1181 1
     604      240     1125 1
     605      338      906 1
     606      437      487 1
     607      754     1132 1
     608      854     1002 1
     609      117     1039 1
     610      172      570 1
     611      118      433 1
     612      356      969 1
     613      195      537 1
     614      946     1035 1
     615      510      734 1
     616      121      478 1
     617      357      384 1
     618      263      486 1
     619       88      576 1
     620      369     1173 1
     621      101      122 1
     622      815     1101 1
     623      252      627 1
     624      246      586 1
     625      858     1158 1
     626      624      959 1
     627      276      456 1
     628      565      606 1
     629       35      222 1
     630      323     1053 1
     631      164      190 1
     632      706      791 1
     633      794      916 1
     634      618      662 1
     635      323      994 1
     636      137      989 1
     637      797      995 1
     638     1111     1181 1
     639      113      514 1
     640      556     1036 1
     641       60     1045 1
     642      147      527 1
     643       90      797 1
     644      905     1073 1
     645      413      623 1
     646      580      817 1
     647      215      500 1
     648      299      563 1
     649      203      419 1
     650      109      565 1
     651      305     1147 1
     652      776     1167 1
     653      234      565 1
     654     1153     1203 1
     655     1135     1193 1
     656      184      241 1
     657       95      122 1
     658      262      304 1
     659      757      778 1
     660      831     1197 1
     661        4      984 1
     662      845      965 1
     663      218      402 1
     664      896      944 1
     665      132     1180 1
     666       61     1073 1
     667      912     1094 1
     668      762      829 1
     669     1149     1188 1
     670      518     1052 1
     671      422      612 1
     672      656      820 1
     673      311     1015 1
     674      482     1050 1
     675      388      532 1
     676      384      637 1
     677     1037     1067 1
     678      866      949 1
     679       18      170 1
     680      896     1077 1
     681      273      840 1
     682       20      510 1
     683      385     1027 1
     684      771      838 1
     685      462      994 1
     686       20      459 1
     687       69      272 1
     688      423     1174 1
     689      318      673 1
     690       63      206 1
     691        7      962 1
     692      346      351 1
     693      270      754 1
     694      947     1009 1
     695      564      709 1
     696      314     1186 1
     697      139      286 1
     698       17      729 1
     699       30      343 1
     700      177      930 1
     701      473      676 1
     702      588      788 1
     703      649      954 1
     704      527      850 1
     705      443      621 1
     706       50      831 1
     707      472      498 1
     708      328      664 1
     709      193      358 1
     710      102     1010 1
     711       70      589 1
     712      157      585 1
     713       40      261 1
     714      223      721 1
     715      812      976 1
     716      345      849 1
     717       17      699 1
     718      858      886 1
     719      177      249 1
     720      481      951 1
     721      306      390 1
     722      817     1032 1
     723      433      441 1
     724      664      993 1
     725      812     1144 1
     726      181      716 1
     727      245      915 1
     728      657      726 1
     729      706     1149 1
     730       60      731 1
     731      271     1172 1
     732        6      496 1
     733        9      309 1
     734      292      638 1
     735      387      872 1
     736      350      655 1
     737      953     1095 1
     738      814     1191 1
     739      595      996 1
     740      114      540 1
     741      882      919 1
     742       99      979 1
     743      383      546 1
     744       46      818 1
     745       98      888 1
     746      617     1044 1
     747      787      845 1
     748      470      624 1
     749      844     1012 1
     750      546      648 1
     751      229      997 1
     752       86      712 1
     753      368     1176 1
     754      136     1040 1
     755      740     1093 1
     756      757     1154 1
     757      392      530 1
     758      573      747 1
     759      791     1166 1
     760      788     1150 1
     761      192      653 1
     762      283     1133 1
     763      271      288 1
     764     1068     1095 1
     765      189     1082 1
     766      679      747 1
     767      783     1092 1
     768       12      232 1
     769       87      657 1
     770      311     1101 1
     771      327      448 1
     772      718      841 1
     773      581     1200 1
     774      673     1047 1
     775      506      685 1
     776       99      911 1
     777      662      966 1
     778      389      403 1
     779      402     1035 1
     780      560     1042 1
     781      302      786 1
     782      723      995 1
     783      627      682 1
     784      260      291 1
     785      224      702 1
     786      815     1028 1
     787       53      634 1
     788      405      608 1
     789      875     1142 1
     790      234      794 1
     791      289     1111 1
     792      455      526 1
     793      393     1147 1
     794      608     1043 1
     795       10     1016 1
     796      321     1084 1
     797      456      880 1
     798      881     1041 1
     799      360      472 1
     800      728     1016 1
     801      379      613 1
     802        1      589 1
     803      725      933 1
     804      862     1144 1
     805      888     1206 1
     806      534     1036 1
     807      132      788 1
     808      567     1140 1
     809      580     1152 1
     810      597      776 1
     811      974     1094 1
     812      317      561 1
     813      313      666 1
     814      303      538 1
     815      307      724 1
     816      426     1167 1
     817      777     1118 1
     818       96     1189 1
     819      407      905 1
     820      213     1005 1
     821       45      594 1
     822      324      940 1
     823      226      435 1
     824      756      820 1
     825      762     1033 1
     826       58      966 1
     827      800     1050 1
     828       28      558 1
     829     1043     1108 1
     830       12      727 1
     831      516      638 1
     832      345      780 1
     833       10      705 1
     834      191      818 1
     835        7      703 1
     836      227     1048 1
     837      470      587 1
     838      364      767 1
     839      182      406 1
     840      417     1054 1
     841       66      414 1
     842       27      968 1
     843      312     1075 1
     844      698      981 1
     845      955     1034 1
     846      603      889 1
     847      695      879 1
     848      220     1030 1
     849      322      792 1
     850       48     1118 1
     851      601      910 1
     852      677     1123 1
     853        6       24 1
     854      231      920 1
     855      853     1191 1
     856       63      805 1
     857      208      506 1
     858      218      577 1
     859      923     1089 1
     860      531      668 1
     861      281      446 1
     862      981     1021 1
     863      142      598 1
     864      605      832 1
     865     1072     1115 1
     866      544     1111 1
     867      238     1193 1
     868      933     1155 1
     869      825      985 1
     870      242      524 1
     871      237      883 1
     872      138     1130 1
     873      251     1195 1
     874      142      571 1
     875      676      999 1
     876      575      852 1
     877      589      784 1
     878      204     1187 1
     879      374      609 1
     880      882     1204 1
     881      569     1056 1
     882       28     1105 1
     883      405     1025 1
     884      468      703 1
     885      473     1149 1
     886      139      878 1
     887      390      568 1
     888      570      583 1
     889       54       99 1
     890       56      165 1
     891       71      445 1
     892       40      552 1
     893      762     1089 1
     894      718     1021 1
     895      131      983 1
     896      549      841 1
     897      973     1172 1
     898      998     1112 1
     899      800      824 1
     900      401     1083 1
     901      143      224 1
     902      876     1076 1
     903      668     1157 1
     904     1081     1140 1
     905      273     1011 1
     906       60     1107 1
     907       16      460 1
     908       61      439 1
     909      813     1091 1
     910       39      532 1
     911      472     1165 1
     912       79      846 1
     913      423     1152 1
     914      323      604 1
     915       10      254 1
     916      538     1082 1
     917       72      537 1
     918      714     1205 1
     919      290      704 1
     920       84     1038 1
     921      100      951 1
     922       62     1160 1
     923      650     1142 1
     924      145      201 1
     925      406      644 1
     926      370      947 1
     927       34      668 1
     928      307      796 1
     929      613     1067 1
     930      167      758 1
     931       53      869 1
     932      544      915 1
     933      781      799 1
     934      599     1190 1
     935      500      917 1
     936      354     1116 1
     937      704     1051 1
     938      236      634 1
     939      383      634 1
     940      257     1039 1
     941      168     1059 1
     942      663      768 1
     943      762      806 1
     944      584     1011 1
     945      275      527 1
     946      447      850 1
     947      141      431 1
     948      520     1018 1
     949      312      861 1
     950      695     1109 1
     951      265      687 1
     952      382      540 1
     953       49      427 1
     954       57      118 1
     955      375      658 1
     956      430      910 1
     957      390      505 1
     958      617      779 1
     959      273     1178 1
     960        2     1020 1
     961      851      913 1
     962      555      556 1
     963      534      663 1
     964      245      630 1
     965       37     1014 1
     966      255      658 1
     967      670      963 1
     968      156      800 1
     969      178     1001 1
     970      183      577 1
     971       32      751 1
     972      415      574 1
     973      932     1123 1
     974      612      696 1
     975        9      277 1
     976      106      654 1
     977      204      340 1
     978      874     1200 1
     979      720      948 1
     980      903     1061 1
     981      153      626 1
     982      146      904 1
     983      534      579 1
     984      157      960 1
     985      905      907 1
     986     1025     1048 1
     987      126      781 1
     988      898     1032 1
     989      745     1191 1
     990      601      707 1
     991      359      685 1
     992      204      927 1
     993       64     1082 1
     994      465     1189 1
     995      372      670 1
     996      196     1140 1
     997      174      377 1
     998      370      595 1
     999       80      533 1
    1000       49      152 1
    1001       19      848 1
    1002      643     1120 1
    1003      549      551 1
    1004      748      998 1
    1005      515      641 1
    1006      121      539 1
    1007      578     1072 1
    1008      614     1024 1
    1009      459      508 1
    1010      328      967 1
    1011      877      880 1
    1012       69     1069 1
    1013      592     1198 1
    1014      832      887 1
    1015      453      865 1
    1016      260      330 1
    1017        5      151 1
    1018      448      773 1
    1019      930      986 1
    1020      618      895 1
    1021       86      616 1
    1022      598      809 1
    1023      528      903 1
    1024      535      846 1
    1025      472      645 1
    1026      800      917 1
    1027      230     1122 1
    1028      586      746 1
    1029      868      915 1
    1030      511      773 1
    1031       14       31 1
    1032      343      742 1
    1033      169      666 1
    1034      751     1022 1
    1035      105      530 1
    1036      429      833 1
    1037      885      964 1
    1038      899     1200 1
    1039      351     1069 1
    1040      102      158 1
    1041      186      940 1
    1042      671      970 1
    1043      506      837 1
    1044      605     1195 1
    1045       67      437 1
    1046      208      373 1
    1047      362      618 1
    1048      410      649 1
    1049      175      676 1
    1050      487      865 1
    1051      279     1026 1
    1052       64      139 1
    1053       78     1129 1
    1054       85     1106 1
    1055      933      957 1
    1056       13      949 1
    1057       41      794 1
    1058      303     1115 1
    1059      983     1205 1
    1060       22      373 1
    1061      786      897 1
    1062      192      648 1
    1063      198      948 1
    1064      832     1029 1
    1065      937     1148 1
    1066      116     1163 1
    1067      260      755 1
    1068       28      211 1
    1069      536      716 1
    1070      247      603 1
    1071      214     1200 1
    1072      737     1146 1
    1073      578      649 1
    1074       21      359 1
    1075       92      415 1
    1076      294      429 1
    1077      311      777 1
    1078      469      506 1
    1079      382     1157 1
    1080      375      557 1
    1081      625      978 1
    1082      204      302 1
    1083      364      388 1
    1084      316     1104 1
    1085      522      966 1
    1086      315     1090 1
    1087      739     1124 1
    1088      348      622 1
    1089      386      825 1
    1090       75      716 1
    1091       56      384 1
    1092       39      760 1
    1093      482      935 1
    1094      903      945 1
    1095       83      441 1
    1096       79      888 1
    1097      634     1007 1
    1098      515     1076 1
    1099      509      946 1
    1100      566     1132 1
    1101        8      977 1
    1102       88      883 1
    1103      699     1170 1
    1104      667      715 1
    1105      254      281 1
    1106      320     1088 1
    1107      375      602 1
    1108      250      896 1
    1109      882     1085 1
    1110      148     1044 1
    1111      216      262 1
    1112      153     1122 1
    1113      367      630 1
    1114      314      959 1
    1115      671      929 1
    1116       12     1098 1
    1117      825      884 1
    1118      165     1097 1
    1119      138      349 1
    1120      202      916 1
    1121      113      954 1
    1122      328      371 1
    1123     1070     1202 1
    1124      157      774 1
    1125      367      470 1
    1126      164      244 1
    1127      277      646 1
    1128      579      609 1
    1129      168      545 1
    1130      174     1139 1
    1131      386      411 1
    1132       99     1080 1
    1133      408     1128 1
    1134      395      870 1
    1135      646      718 1
    1136      170      785 1
    1137      537      925 1
    1138      730      815 1
    1139       71     1177 1
    1140      630      796 1
    1141      109      818 1
    1142      252      625 1
    1143      262     1143 1
    1144      761      961 1
    1145      121     1017 1
    1146      129      858 1
    1147      530      878 1
    1148      793      951 1
    1149      340      475 1
    1150      237     1061 1
    1151      112     1174 1
    1152      287      741 1
    1153      397      828 1
    1154      114      838 1
    1155      162     1099 1
    1156      521     1201 1
    1157      506     1143 1
    1158       68      104 1
    1159      233      683 1
    1160      519      546 1
    1161      135      348 1
    1162       47      467 1
    1163      486      626 1
    1164      871     1102 1
    1165      240      881 1
    1166      542      864 1
    1167      508     1041 1
    1168      188      434 1
    1169      223      422 1
    1170      328      805 1
    1171      222     1029 1
    1172      173      862 1
    1173       23      563 1
    1174       90      466 1
    1175      189      692 1
    1176      256      956 1
    1177      238      281 1
    1178      635     1042 1
    1179      737      867 1
    1180      162      864 1
    1181      503      620 1
    1182      677      786 1
    1183      212      599 1
    1184      720      808 1
    1185      317      547 1
    1186      815      900 1
    1187      470      823 1
    1188      153      971 1
    1189      145      499 1
    1190      669      910 1
    1191      100      369 1
    1192      773     1131 1
    1193      356     1104 1
    1194      246      447 1
    1195      265      418 1
    1196      392      761 1
    1197      968     1049 1
    1198      668     1151 1
    1199      225     1076 1
    1200      590      771 1
    1201      734     1037 1
    1202      593     1024 1
    1203      525      618 1
    1204      594      995 1
    1205      192     1204 1
    1206      603      713 1
    1207      174      572 1
    1208      231      785 1
    1209      334      400 1
    1210      219      500 1
    1211      447      987 1
    1212      680     1065 1
    1213      751     1171 1
    1214      542      921 1
    1215      955     1096 1
    1216      167      196 1
    1217      728      744 1
    1218      401      830 1
    1219       31      335 1
    1220      163     1164 1
    1221      180      812 1
    1222      362      923 1
    1223      354     1126 1
    1224      359      631 1
    1225      428      885 1
    1226       87     1175 1
    1227      337      704 1
    1228      848      952 1
    1229      345     1034 1
    1230      110     1159 1
    1231      826      862 1
    1232      483     1032 1
    1233      620      964 1
    1234        5      926 1
    1235       37     1070 1
    1236      187      288 1
    1237      833     1000 1
    1238      248      752 1
    1239      946     1023 1
    1240      123      769 1
    1241      121      526 1
    1242      411      463 1
    1243     1022     1170 1
    1244       33      612 1
    1245      301      852 1
    1246      574      586 1
    1247      264      818 1
    1248      794      990 1
    1249      308      405 1
    1250      342      968 1
    1251      330      417 1
    1252      103      930 1
    1253      564     1041 1
    1254       16      632 1
    1255      260     1013 1
    1256      918     1186 1
    1257      135      711 1
    1258      695      735 1
    1259      241      303 1
    1260     1081     1203 1
    1261       28     1166 1
    1262      229      735 1
    1263      635      831 1
    1264      628     1009 1
    1265      153      675 1
    1266      951     1066 1
    1267      421      915 1
    1268      278      462 1
    1269      327     1146 1
    1270       52      810 1
    1271      462      974 1
    1272      255      442 1
    1273      524      642 1
    1274      501     1057 1
    1275       21      490 1
    1276       71      450 1
    1277      987     1123 1
    1278      130     1037 1
    1279      615      885 1
    1280      865      942 1
    1281      737      919 1
    1282      684      913 1
    1283      468      911 1
    1284       81      871 1
    1285      369      980 1
    1286      188     1134 1
    1287       19     1193 1
    1288      114      849 1
    1289      715      962 1
    1290      323     1168 1
    1291      440      743 1
    1292       25      981 1
    1293     1126     1180 1
    1294     1051     1142 1
    1295      682      877 1
    1296      752     1030 1
    1297      813     1192 1
    1298      613      759 1
    1299      942     1039 1
    1300      145      642 1
    1301     1013     1193 1
    1302      577      814 1
    1303      707      749 1
    1304      837     1042 1
    1305      128      913 1
    1306       59     1030 1
    1307      170     1092 1
    1308      704     1187 1
    1309       33      256 1
    1310      708      747 1
    1311      483     1169 1
    1312       97      151 1
    1313      410      598 1
    1314      406     1000 1
    1315       44     1118 1
    1316      571      890 1
    1317      518      550 1
    1318      580     1083 1
    1319       74      104 1
    1320       58      382 1
    1321      440      451 1
    1322      689      869 1
    1323      305     1170 1
    1324      570      674 1
    1325      349      477 1
    1326      154     1086 1
    1327      143      566 1
    1328      381     1071 1
    1329      149      304 1
    1330       74     1005 1
    1331      339      747 1
    1332      485      873 1
    1333      424      728 1
    1334      865     1185 1
    1335     1053     1163 1
    1336      505     1170 1
    1337        5      952 1
    1338      335      412 1
    1339      412     1019 1
    1340      659      770 1
    1341      549      557 1
    1342       80     1121 1
    1343      552      940 1
    1344      754     1138 1
    1345       78      904 1
    1346      320      963 1
    1347      288     1060 1
    1348      822     1058 1
    1349      482      847 1
    1350      671      867 1
    1351      213      408 1
    1352      265     1046 1
    1353      768     1055 1
    1354       51      417 1
    1355      221      851 1
    1356      691      904 1
    1357      112      161 1
    1358      469     1172 1
    1359      458      996 1
    1360      311      934 1
    1361      149      972 1
    1362     1184     1201 1
    1363      636      863 1
    1364      139      275 1
    1365      567      792 1
    1366      710      715 1
    1367      751      819 1
    1368      592      986 1
    1369      456      780 1
    1370        1      294 1
    1371      307      906 1
    1372      274      387 1
    1373      176      381 1
    1374       27     1009 1
    1375      602     1169 1
    1376      727      845 1
    1377      779      843 1
    1378      871     1137 1
    1379      572      599 1
    1380      517      627 1
    1381      822     1125 1
    1382      168      660 1
    1383      451      790 1
    1384      407      415 1
    1385      623     1056 1
    1386      104      333 1
    1387      226      763 1
    1388      412     1177 1
    1389      141      378 1
    1390       85      770 1
    1391      324     1160 1
    1392      619     1161 1
    1393      140     1147 1
    1394      235      370 1
    1395       80      873 1
    1396      164      936 1
    1397      674      848 1
    1398      296      913 1
    1399      317      839 1
    1400      175      389 1
    1401      474      683 1
    1402      203     1208 1
    1403      924     1048 1
    1404      417      931 1
    1405       24      791 1
    1406      282      620 1
    1407        3      240 1
    1408      282      636 1
    1409      228     1006 1
    1410      368     1052 1
    1411        6      377 1
    1412      419     1123 1
    1413      191      202 1
    1414      197      584 1
    1415      714     1103 1
    1416      123      268 1
    1417      172      854 1
    1418      394     1201 1
    1419      462     1105 1
    1420      399      414 1
    1421      269      804 1
    1422      789      888 1
    1423       25      248 1
    1424      477      490 1
    1425      744     1201 1
    1426       11      923 1
    1427       36      411 1
    1428       92      397 1
    1429      229      611 1
    1430      105      249 1
    1431      264      771 1
    1432      693     1161 1
    1433      134      399 1
    1434     1094     1199 1
    1435      119      460 1
    1436      341      452 1
    1437      293      993 1
    1438      354     1085 1
    1439       17     1027 1
    1440      872      896 1
    1441      110     1077 1
    1442      176      989 1
    1443      308     1074 1
    1444      182      489 1
    1445      408      914 1
    1446       90      391 1
    1447      113      374 1
    1448       86      651 1
    1449      600      959 1
    1450       26      493 1
    1451      969     1163 1
    1452      117      871 1
    1453      353     1095 1
    1454      629     1129 1
    1455      296      455 1
    1456      809     1072 1
    1457      167      200 1
    1458      285     1075 1
    1459      280     1117 1
    1460      670     1010 1
    1461      388      675 1
    1462      152      998 1
    1463       76      183 1
    1464      589     1110 1
    1465      372      761 1
    1466      773      798 1
    1467      166      195 1
    1468      310      546 1
@<TRIPOS>SUBSTRUCTURE
       1 RES             1 RESIDUE    0 **** ROOT      0
