@<TRIPOS>MOLECULE
RES
2106 2582 1 0 1
SMALL
NO_CHARGES
@<TRIPOS>CRYSIN
   50.0000    50.0000    20.0300    90.0000    90.0000    90.0000  1  1
@<TRIPOS>ATOM
       1 O           39.3280    24.2340     3.1580 O             1 RES     
       2 O            8.4580    48.5390     6.1960 O             1 RES     
       3 O            9.9370    34.3450     9.7080 O             1 RES     
       4 O           27.9310    20.9500     2.9650 O             1 RES     
       5 Si          34.0510    21.9090     6.4800 Si            1 RES     
       6 O           31.4160    17.1410     7.9150 O             1 RES     
       7 O            7.4230    25.4710     6.7820 O             1 RES     
       8 O           47.1120     3.1090     5.5400 O             1 RES     
       9 O           32.8980     7.8050     9.9470 O             1 RES     
      10 Si          38.7810    11.9610     4.5220 Si            1 RES     
      11 O           25.3700     1.5880    12.7280 O             1 RES     
      12 O           28.2200     7.4620    11.4690 O             1 RES     
      13 O           41.5420    22.2820     9.1930 O             1 RES     
      14 O           31.7550     1.9730    13.4760 O             1 RES     
      15 Si           1.2140    26.3900     3.6200 Si            1 RES     
      16 O           32.1660    42.1050     9.0280 O             1 RES     
      17 O           26.2930    46.3710     7.6460 O             1 RES     
      18 O           17.5360    25.3840     7.5700 O             1 RES     
      19 O           45.4190    33.1370    12.1080 O             1 RES     
      20 Si          37.4340     4.1390     8.1680 Si            1 RES     
      21 O           35.4360    32.8570     8.7280 O             1 RES     
      22 O           23.7070    24.5910     4.9950 O             1 RES     
      23 Si           7.6290    42.0460    14.5770 Si            1 RES     
      24 Si          18.9430    40.9130    13.6300 Si            1 RES     
      25 O            9.6650    31.9680     5.7910 O             1 RES     
      26 Si          45.4860    22.8860    10.2000 Si            1 RES     
      27 Si          19.9930    18.2280    12.3350 Si            1 RES     
      28 O           24.5250    30.7410     7.9630 O             1 RES     
      29 O           32.6640    41.9310    11.4990 O             1 RES     
      30 O            6.5590    27.3500     5.0100 O             1 RES     
      31 Si           8.9520    33.0600     4.9870 Si            1 RES     
      32 O           40.1130    25.9410     9.7650 O             1 RES     
      33 O           20.6210    37.5380     6.4480 O             1 RES     
      34 Si          24.6920    29.4830     6.9840 Si            1 RES     
      35 Si          19.3940    15.7420     5.6330 Si            1 RES     
      36 O           29.8760    11.7970     6.2890 O             1 RES     
      37 O           37.9360    30.6050     3.1040 O             1 RES     
      38 O           49.3000    43.1650     4.7740 O             1 RES     
      39 O           49.2410    15.4300     8.7790 O             1 RES     
      40 Si          16.0040    25.6960     7.5250 Si            1 RES     
      41 O           10.2360     3.4110     9.6970 O             1 RES     
      42 O           43.4210    28.2730     6.3950 O             1 RES     
      43 O            0.1870    40.6520     3.9740 O             1 RES     
      44 O           11.9330    36.8760     3.0060 O             1 RES     
      45 Si          43.8870     0.3740     7.3530 Si            1 RES     
      46 O           23.3580    12.3080    11.7210 O             1 RES     
      47 OS          46.3330    21.9160    14.2350 OS            1 RES     
      48 Si          25.3870    41.5760    12.4880 Si            1 RES     
      49 O           46.0860    21.2950     7.0170 O             1 RES     
      50 O           21.7340     6.6160     4.3500 O             1 RES     
      51 O           23.6280    38.4180    11.4120 O             1 RES     
      52 O           48.4240    30.3200     6.4430 O             1 RES     
      53 O           14.8410    23.7240    11.1040 O             1 RES     
      54 O           13.8720     7.7270     8.0010 O             1 RES     
      55 O           42.9320    35.6550     5.0210 O             1 RES     
      56 Si          14.9580    22.2990    11.7660 Si            1 RES     
      57 Si           1.3660    23.9370     5.4410 Si            1 RES     
      58 O           17.8410    37.7820    13.0870 O             1 RES     
      59 O            2.1070    45.4170     9.4240 O             1 RES     
      60 Si          23.7100    28.9220    12.3920 Si            1 RES     
      61 O           38.9530    35.4330    11.0830 O             1 RES     
      62 O           18.9750    37.1960     8.6150 O             1 RES     
      63 O           20.4090    49.8920     4.6600 O             1 RES     
      64 O           45.0010    36.9310    13.7540 O             1 RES     
      65 O           46.3590    38.6730     9.4100 O             1 RES     
      66 Si          30.3630    42.9570     3.6210 Si            1 RES     
      67 Si          47.8950    43.8810     5.0840 Si            1 RES     
      68 O           21.7380    45.4450     8.6830 O             1 RES     
      69 O           29.7260    34.7920    11.3840 O             1 RES     
      70 O           28.0750     5.0820    10.5820 O             1 RES     
      71 O           21.1570    46.3070    14.3630 O             1 RES     
      72 Si          24.9300    47.1050     7.6980 Si            1 RES     
      73 O           49.2420    47.3080     4.1190 O             1 RES     
      74 OS           9.9970    49.0200    15.3030 OS            1 RES     
      75 O           19.3630    42.3460    13.2480 O             1 RES     
      76 O           42.6700    39.8890    13.3630 O             1 RES     
      77 O           30.4550     7.1310    10.0400 O             1 RES     
      78 Si          23.1700     7.2460     4.4180 Si            1 RES     
      79 O           22.6910    40.0080     9.8390 O             1 RES     
      80 O            9.2430    34.4260     5.6130 O             1 RES     
      81 Si          35.9510    45.0840     7.4200 Si            1 RES     
      82 O           13.0020    14.6690    10.0680 O             1 RES     
      83 Si          22.3030    18.2180     3.4300 Si            1 RES     
      84 O           38.6920    44.6600     9.9650 O             1 RES     
      85 Si           5.3750    36.6310     5.4460 Si            1 RES     
      86 O            8.7770    41.0120    14.1070 O             1 RES     
      87 O           31.6610     6.9240     7.6810 O             1 RES     
      88 O            2.1040    44.4950    11.9170 O             1 RES     
      89 O           10.2660     3.2190    12.0870 O             1 RES     
      90 O           33.2710    37.6820     4.3090 O             1 RES     
      91 O            2.5230    37.1640    12.4500 O             1 RES     
      92 O           34.7990    41.8550    10.2240 O             1 RES     
      93 Si          40.6200    48.9560    13.0040 Si            1 RES     
      94 Si          20.4020    45.1770     4.5950 Si            1 RES     
      95 Si          30.0820    17.9670     7.9450 Si            1 RES     
      96 O           30.5780    43.3520     7.2540 O             1 RES     
      97 O           19.3900    32.4830    10.8440 O             1 RES     
      98 O           38.7970    47.0110    10.9690 O             1 RES     
      99 Si          39.4990    19.3740     8.7080 Si            1 RES     
     100 O           42.9490    38.5760     2.4350 O             1 RES     
     101 Si           3.8240    29.5800     7.9930 Si            1 RES     
     102 O           26.1210     8.9700    12.5670 O             1 RES     
     103 O           37.3440     8.4030     7.9400 O             1 RES     
     104 O           15.1020    37.0500     8.0510 O             1 RES     
     105 O            9.6790     3.5510     2.8980 O             1 RES     
     106 O           31.5790    43.9430     3.5960 O             1 RES     
     107 Si          35.8900    12.3490     5.6510 Si            1 RES     
     108 O            4.2640     9.0260     4.7800 O             1 RES     
     109 O           44.0270    15.3980     4.9560 O             1 RES     
     110 O           38.3090    33.0360    11.9640 O             1 RES     
     111 Si          32.8510    29.5180    12.2650 Si            1 RES     
     112 O           22.9350    41.4540     7.9210 O             1 RES     
     113 O           30.0370    49.7050     3.3810 O             1 RES     
     114 Si           3.5000    38.7530     4.4320 Si            1 RES     
     115 O           38.2010    10.6540     7.5920 O             1 RES     
     116 O            9.7210    44.1600     8.4230 O             1 RES     
     117 O           38.4650    25.9060     8.1340 O             1 RES     
     118 O            6.0940    16.2190     8.6880 O             1 RES     
     119 Si          35.5490    30.0700    13.5290 Si            1 RES     
     120 OS          19.4890    24.5230    14.7060 OS            1 RES     
     121 O           41.3560    36.3370    10.0850 O             1 RES     
     122 Si          15.1630    35.7140     7.3010 Si            1 RES     
     123 O            7.6490    16.0520    13.1470 O             1 RES     
     124 O           31.1850     7.8320     5.0870 O             1 RES     
     125 O           24.1550    46.1000     8.5750 O             1 RES     
     126 O            8.2810     6.0230    12.1260 O             1 RES     
     127 Si           5.4560     7.3650    14.2420 Si            1 RES     
     128 O           45.3310    24.4320     9.8760 O             1 RES     
     129 Si          25.6960    37.4590     8.8510 Si            1 RES     
     130 O            2.2070    13.1450    12.8520 O             1 RES     
     131 Si          15.9380    32.7240     8.1010 Si            1 RES     
     132 Si           7.5200    44.1720    12.3700 Si            1 RES     
     133 O           30.4440    23.0700     5.2210 O             1 RES     
     134 O           46.7050    47.7370     5.0130 O             1 RES     
     135 OS          13.2410    47.3600    14.7350 OS            1 RES     
     136 O           11.4490     7.4630     8.7760 O             1 RES     
     137 Si          23.7950     1.6760     6.8390 Si            1 RES     
     138 Si          29.4070    14.1440    12.7720 Si            1 RES     
     139 O            2.8600    30.0720     9.2260 O             1 RES     
     140 OS          39.9800    19.6340    14.9860 OS            1 RES     
     141 Si          21.9800    30.9280     3.3940 Si            1 RES     
     142 O           24.3500    18.9630     7.6670 O             1 RES     
     143 Si          22.5320    25.0840     4.1390 Si            1 RES     
     144 O            3.2820     9.1310    10.0050 O             1 RES     
     145 Si          18.5560    33.6670    11.4620 Si            1 RES     
     146 O           17.6690    29.6720     7.1160 O             1 RES     
     147 Si          20.2150     6.4960     4.7090 Si            1 RES     
     148 Si          26.0590    40.8180     5.8490 Si            1 RES     
     149 O           28.9650    38.7850    10.2090 O             1 RES     
     150 Si          49.4280     0.5340     8.6050 Si            1 RES     
     151 OS          30.9120     5.7890    15.4930 OS            1 RES     
     152 O            4.7720    21.7590     6.4550 O             1 RES     
     153 O           24.2530    33.2980     7.8670 O             1 RES     
     154 O           26.5570    43.0640    13.5040 O             1 RES     
     155 Si          10.7020    30.7490     6.1000 Si            1 RES     
     156 O           42.6700     5.6730     5.2900 O             1 RES     
     157 Si          14.2700    49.9640    11.6860 Si            1 RES     
     158 O            6.6100    21.1300    10.0300 O             1 RES     
     159 O           49.4510    11.8250    10.8060 O             1 RES     
     160 O           41.1260    13.8420     9.8870 O             1 RES     
     161 O           36.5990    20.8150    13.3960 O             1 RES     
     162 O           45.6810    15.0260     7.0230 O             1 RES     
     163 O           46.7460    26.3010     8.8480 O             1 RES     
     164 O           27.8520    30.1570     5.1630 O             1 RES     
     165 O           14.0080    16.7380     5.3380 O             1 RES     
     166 Si          13.3490    24.6240     3.2190 Si            1 RES     
     167 O           25.9020    34.8710     4.4290 O             1 RES     
     168 O           20.1230     4.8830     4.5910 O             1 RES     
     169 O           34.1470    15.1210    11.3000 O             1 RES     
     170 Si           1.3730    22.1510     2.9220 Si            1 RES     
     171 O           21.3860     9.3540    14.2790 O             1 RES     
     172 O           49.7900    25.9860     3.1710 O             1 RES     
     173 O           32.2150    27.3290     8.7490 O             1 RES     
     174 O           42.4190    13.5680     5.7240 O             1 RES     
     175 O           37.2140     5.2770     9.2580 O             1 RES     
     176 O           40.9980    23.4960     1.5910 O             1 RES     
     177 O            0.6460    27.9250    13.3760 O             1 RES     
     178 Si           0.8110    19.1590     9.6580 Si            1 RES     
     179 O           30.5330    18.1760     4.0030 O             1 RES     
     180 O           41.9850    33.4010     8.8860 O             1 RES     
     181 O            6.9590    38.8170    12.1150 O             1 RES     
     182 O           23.5630    28.8290     6.0310 O             1 RES     
     183 Si          36.8960     6.1620    10.4730 Si            1 RES     
     184 O           30.9060    42.8970    12.8760 O             1 RES     
     185 Si          36.6590    19.1670    13.0730 Si            1 RES     
     186 O           22.3450    33.7720    10.4280 O             1 RES     
     187 Si          38.7720    49.4470     3.8340 Si            1 RES     
     188 Si          20.6320    28.6790    11.6590 Si            1 RES     
     189 O           29.1060     9.9070     8.0490 O             1 RES     
     190 O            4.3300    16.1090     6.8260 O             1 RES     
     191 Si          46.1970     8.4660     8.6420 Si            1 RES     
     192 O           31.4770    20.9200    10.3250 O             1 RES     
     193 O           23.6740    13.7090     7.1970 O             1 RES     
     194 O           25.7850    16.0530    11.2930 O             1 RES     
     195 Si          25.0720     2.0650    11.2810 Si            1 RES     
     196 O            6.5130    12.3630    10.0980 O             1 RES     
     197 O            9.7480    22.3050    14.0480 O             1 RES     
     198 O           31.2430    26.1310     6.4910 O             1 RES     
     199 O           29.5560    43.4330     4.9100 O             1 RES     
     200 O            5.5290    29.6980     4.5780 O             1 RES     
     201 O           41.2690     0.2290    13.6010 O             1 RES     
     202 Si          12.1290    29.9390     9.9840 Si            1 RES     
     203 OS          37.6540    22.6800    14.4990 OS            1 RES     
     204 O           19.3970     5.5340    14.5810 O             1 RES     
     205 Si          42.9810    42.5610    10.5600 Si            1 RES     
     206 O            0.0220    14.5270     4.1100 O             1 RES     
     207 O           27.5270     6.1070     3.8020 O             1 RES     
     208 O           12.7250     3.7090    12.4850 O             1 RES     
     209 Si           9.4180     2.8310    10.8570 Si            1 RES     
     210 O           31.6600    36.1520    10.5500 O             1 RES     
     211 Si          18.5290    31.0570     7.4200 Si            1 RES     
     212 O           22.9530    45.1110    10.9490 O             1 RES     
     213 O           47.5310    28.1790     7.5710 O             1 RES     
     214 Si          32.4110    11.4260    14.4260 Si            1 RES     
     215 O           22.0970     2.9560     3.5790 O             1 RES     
     216 O           23.9750    47.1680     6.4300 O             1 RES     
     217 Si          35.6350     7.7970     5.0950 Si            1 RES     
     218 OS          28.6390    36.2550    14.3820 OS            1 RES     
     219 Si          15.2560    25.1420    10.4270 Si            1 RES     
     220 O           18.6580    35.0890    10.6360 O             1 RES     
     221 O           20.2660    37.5690    13.8000 O             1 RES     
     222 O           29.7200    18.0810    12.3670 O             1 RES     
     223 O           26.0000    19.8770     4.2940 O             1 RES     
     224 O           41.0400     2.2550     8.1180 O             1 RES     
     225 Si          26.5050     9.2230     5.5330 Si            1 RES     
     226 O           36.9120    40.4130    10.7990 O             1 RES     
     227 O           20.7340    15.2520     4.9050 O             1 RES     
     228 O           19.4960    18.3400    10.8120 O             1 RES     
     229 O           22.9330     2.9620     7.0930 O             1 RES     
     230 O           46.3160    48.9330    13.3120 O             1 RES     
     231 O           25.5590    23.5770     6.4960 O             1 RES     
     232 O           34.9440    48.6380    11.0810 O             1 RES     
     233 Si          25.5740    19.7440    11.9030 Si            1 RES     
     234 O           48.8640    43.1430    13.3700 O             1 RES     
     235 Si          39.8650    13.0490    13.4740 Si            1 RES     
     236 O            0.6750    30.5180    10.5840 O             1 RES     
     237 OS          19.3050    40.6320    15.2050 OS            1 RES     
     238 Si          19.9420     6.1710     7.7720 Si            1 RES     
     239 Si          23.1990    12.0790     3.8050 Si            1 RES     
     240 O           30.8380     5.4450     5.9680 O             1 RES     
     241 O           45.9100     7.5290     7.3860 O             1 RES     
     242 Si           3.6840    12.8230    12.3480 Si            1 RES     
     243 O           18.8100    44.6700    12.2700 O             1 RES     
     244 Si          38.0060    11.3040     9.0220 Si            1 RES     
     245 O           20.9740    36.1480     4.3800 O             1 RES     
     246 Si          21.0440     5.2630    14.6930 Si            1 RES     
     247 O           33.5230    45.4890     2.9160 O             1 RES     
     248 O           28.3750     6.0870    14.6900 O             1 RES     
     249 Si           9.2410    45.5480     3.3790 Si            1 RES     
     250 Si          34.3650     5.5360    12.3320 Si            1 RES     
     251 Si          39.6160    25.8090     3.1450 Si            1 RES     
     252 O           28.8550    16.9830     8.2740 O             1 RES     
     253 Si          10.8730    25.4460     9.4090 Si            1 RES     
     254 O            2.9380    27.3670    13.5110 O             1 RES     
     255 O           33.3940    45.2420    13.7960 O             1 RES     
     256 Si          45.8650    31.8970     2.7980 Si            1 RES     
     257 O           43.3990     5.4610    10.9030 O             1 RES     
     258 Si          48.1860     9.2440    12.9390 Si            1 RES     
     259 O           45.3100    32.5620     6.9560 O             1 RES     
     260 O           21.8170    45.9040     5.1190 O             1 RES     
     261 O           42.0710    47.7170     9.4400 O             1 RES     
     262 Si          35.4420    32.0520     7.3890 Si            1 RES     
     263 O           45.1310    14.1860     9.3770 O             1 RES     
     264 O           13.7230     1.3210    12.2550 O             1 RES     
     265 O           28.4180    12.2310     8.3410 O             1 RES     
     266 O           48.1150     3.6560     3.2300 O             1 RES     
     267 O           24.3630    21.2010     2.9820 O             1 RES     
     268 Si           0.4750    39.2730     4.6870 Si            1 RES     
     269 Si          49.8290    17.2240    12.6160 Si            1 RES     
     270 O           11.8830    42.9360     5.5030 O             1 RES     
     271 O           48.1000    18.5900     5.2710 O             1 RES     
     272 OS          36.9350    13.5800    15.2140 OS            1 RES     
     273 Si          13.5760    45.1310     8.3190 Si            1 RES     
     274 O            7.9420    29.6150     8.5510 O             1 RES     
     275 O           19.4490    16.2870     9.2650 O             1 RES     
     276 Si          21.5420    36.5720    14.1650 Si            1 RES     
     277 O           20.8560    44.1370    13.7370 O             1 RES     
     278 O           21.8720    33.0660     6.7000 O             1 RES     
     279 Si          28.1680    32.5160     7.8900 Si            1 RES     
     280 O            9.3260    14.7530     6.8240 O             1 RES     
     281 Si          33.4080    23.7200     8.8770 Si            1 RES     
     282 O           22.0920    20.6210     7.5910 O             1 RES     
     283 O            3.4620     6.4040    10.5250 O             1 RES     
     284 Si          37.3120    24.5400    11.4470 Si            1 RES     
     285 O           26.2140    25.8960    11.8030 O             1 RES     
     286 Si          39.0690    17.2800     3.3630 Si            1 RES     
     287 O           38.6180    34.2620     4.5350 O             1 RES     
     288 Si          37.6040    34.2130     3.3530 Si            1 RES     
     289 O           17.1970    29.7180    13.4790 O             1 RES     
     290 O            0.7970    42.5890     7.7990 O             1 RES     
     291 O           22.2110    13.2820     3.8790 O             1 RES     
     292 OS          40.1380    25.9320    14.3240 OS            1 RES     
     293 O            3.3010    42.0190     7.2270 O             1 RES     
     294 O           42.6960    40.5310     3.8590 O             1 RES     
     295 Si          17.0000     5.1450     8.0970 Si            1 RES     
     296 O           47.1890    25.8760     6.4000 O             1 RES     
     297 O           42.6210    18.3830    10.7470 O             1 RES     
     298 O            8.0760    15.1190     4.6190 O             1 RES     
     299 Si          45.0950    38.4250    10.3500 Si            1 RES     
     300 O           45.8150     0.0320     1.4580 O             1 RES     
     301 Si          12.9980    31.8610     7.7030 Si            1 RES     
     302 O           18.4430    18.7220     8.4660 O             1 RES     
     303 O           24.4370    16.7460     6.5860 O             1 RES     
     304 OS          49.4460    48.7190    14.6740 OS            1 RES     
     305 Si          14.9540    12.9100     6.0530 Si            1 RES     
     306 O           14.9650    18.7910     9.9840 O             1 RES     
     307 O           37.9870    44.9430    12.3720 O             1 RES     
     308 Si          20.9490    47.8360    14.6340 Si            1 RES     
     309 Si          24.7280    26.1950    11.4530 Si            1 RES     
     310 O           47.3630    32.9210     8.3330 O             1 RES     
     311 O           43.0670     2.0600    14.2180 O             1 RES     
     312 O           32.0960    16.7640    11.4900 O             1 RES     
     313 O           34.8860    47.1780    12.9650 O             1 RES     
     314 O           12.7500    15.3170     3.5650 O             1 RES     
     315 O           35.1600    41.7720     5.1760 O             1 RES     
     316 O           46.3020    43.3040     9.1230 O             1 RES     
     317 O           21.4630    14.5980     8.6160 O             1 RES     
     318 O           38.8250    47.9060     3.5560 O             1 RES     
     319 OS          31.5970    22.2610    15.3020 OS            1 RES     
     320 O           33.4650     1.9990     3.7860 O             1 RES     
     321 O           27.3030    14.6550     8.4230 O             1 RES     
     322 Si          47.7840    30.4230    13.0160 Si            1 RES     
     323 Si          28.0700    37.3300    13.3640 Si            1 RES     
     324 O           24.3010    27.5890    11.8080 O             1 RES     
     325 O           29.2100    28.5980    14.2210 O             1 RES     
     326 O           18.4060    47.3430    11.6440 O             1 RES     
     327 O            6.4100    19.6400     5.3440 O             1 RES     
     328 O           19.7470    28.5850    12.9640 O             1 RES     
     329 O            9.7490    47.1610    13.2240 O             1 RES     
     330 Si          48.5780    19.7920     6.0330 Si            1 RES     
     331 Si          13.2120     6.2720     4.4060 Si            1 RES     
     332 Si          38.8670    43.7710     3.9090 Si            1 RES     
     333 O           16.1730    35.9180     6.1790 O             1 RES     
     334 Si          46.9800     2.9410     3.9820 Si            1 RES     
     335 O           16.4210    48.9450     5.2640 O             1 RES     
     336 OS          26.6940    44.9590    15.1340 OS            1 RES     
     337 O           49.7980    38.4060    12.4830 O             1 RES     
     338 Si          45.7850    33.9520    13.4140 Si            1 RES     
     339 Si          28.4320     0.9860     9.0180 Si            1 RES     
     340 OS          13.7120    44.0760    14.1260 OS            1 RES     
     341 OS          18.4220    28.3930    15.1580 OS            1 RES     
     342 O            3.7910    19.2340    12.2220 O             1 RES     
     343 Si          37.3810    14.3720     9.2660 Si            1 RES     
     344 O           39.6090    17.1140     4.7570 O             1 RES     
     345 O           18.9850    23.2030     4.9360 O             1 RES     
     346 O           33.3830    29.5890     8.6530 O             1 RES     
     347 Si           6.5040    34.3540     3.6440 Si            1 RES     
     348 OS          27.0950    38.4120    14.2150 OS            1 RES     
     349 O           10.6390    41.7210    12.3230 O             1 RES     
     350 Si          21.8010    23.4750    10.1490 Si            1 RES     
     351 O           32.1880     2.9370    11.0530 O             1 RES     
     352 O           48.2850    37.1040     8.2830 O             1 RES     
     353 O           41.0400     2.3510    12.7430 O             1 RES     
     354 O           21.6560    15.2860     2.4880 O             1 RES     
     355 Si          23.6110    42.4730     6.8000 Si            1 RES     
     356 Si          39.1900    24.7630     8.9630 Si            1 RES     
     357 O           23.5860    47.4960    12.0860 O             1 RES     
     358 O           35.6550    44.6830    12.9390 O             1 RES     
     359 O           38.8090    10.5150     5.0240 O             1 RES     
     360 Si          24.0620    35.1490    14.2360 Si            1 RES     
     361 Si           7.5450    17.4300    12.2700 Si            1 RES     
     362 O           11.9280    10.0130     4.3980 O             1 RES     
     363 OS          29.4870    24.8820    15.0800 OS            1 RES     
     364 O           47.4460    12.9720    12.0550 O             1 RES     
     365 O           16.4350     1.3450     6.4240 O             1 RES     
     366 OS          15.1070    41.8100    14.3490 OS            1 RES     
     367 Si          10.3130    11.8920    10.4020 Si            1 RES     
     368 O           11.2070    32.3640    13.4470 O             1 RES     
     369 O           23.7810    46.8420     3.9060 O             1 RES     
     370 O           32.3080    40.5490    13.5250 O             1 RES     
     371 Si          14.6130    39.8490    10.8620 Si            1 RES     
     372 O           23.8970    25.3580    12.4800 O             1 RES     
     373 Si           9.0190     4.2510     4.0900 Si            1 RES     
     374 O           25.1120    14.6520     5.4390 O             1 RES     
     375 Si          44.0140    36.7140     7.7550 Si            1 RES     
     376 O           48.1550    10.7840    12.7930 O             1 RES     
     377 O           14.5800    10.1050    13.9600 O             1 RES     
     378 O           30.2540    15.4520    12.2440 O             1 RES     
     379 O           15.1430    39.4530     9.4470 O             1 RES     
     380 Si          26.1430     3.1790     5.5820 Si            1 RES     
     381 O            0.4530     3.1480     6.2690 O             1 RES     
     382 O           46.8350    49.3910    10.9860 O             1 RES     
     383 O            4.0590    36.5990     8.4880 O             1 RES     
     384 Si          21.9700    14.8470     4.0010 Si            1 RES     
     385 Si           5.4830    21.8870    10.9520 Si            1 RES     
     386 O           12.9610    16.0130    12.0790 O             1 RES     
     387 Si          18.5110    45.7810    11.1700 Si            1 RES     
     388 O           26.1120     6.5300    13.1560 O             1 RES     
     389 O           28.9550    11.6580     3.8450 O             1 RES     
     390 O           16.8570     4.4800     9.5660 O             1 RES     
     391 O           12.2070    31.3180     6.4880 O             1 RES     
     392 Si           3.6610    47.9890     3.2660 Si            1 RES     
     393 O            2.3810    38.3960     9.2630 O             1 RES     
     394 OS           2.3710    15.6750    15.1730 OS            1 RES     
     395 O           16.4770    43.0330     5.4360 O             1 RES     
     396 OS          18.8940    14.6420    14.0900 OS            1 RES     
     397 O            8.4010    37.8400     9.9930 O             1 RES     
     398 Si          35.2360    26.0960     9.8200 Si            1 RES     
     399 O           41.6370    48.2940    12.0470 O             1 RES     
     400 O           28.3920    45.5220     9.3080 O             1 RES     
     401 Si           8.7650     9.9060     8.6400 Si            1 RES     
     402 Si          31.1860    40.2060     4.6190 Si            1 RES     
     403 O           33.9620     9.7730    11.3540 O             1 RES     
     404 Si          29.9290    38.9810    11.4220 Si            1 RES     
     405 O           31.0820    45.2290    13.9070 O             1 RES     
     406 O           12.6410    40.5630    10.4970 O             1 RES     
     407 O           46.4470    45.4640     8.5700 O             1 RES     
     408 O            3.8460    49.6770    12.4230 O             1 RES     
     409 O           11.9350    26.3070    10.1220 O             1 RES     
     410 OS           1.5340    34.4590    14.7830 OS            1 RES     
     411 O           34.7310    37.0780     7.2970 O             1 RES     
     412 O            9.9940    32.7270     3.7510 O             1 RES     
     413 O           45.7050    12.9940    13.9360 O             1 RES     
     414 Si          18.4620    19.7870     7.3990 Si            1 RES     
     415 O           11.2240    35.5340     6.4810 O             1 RES     
     416 O           43.9110    10.6470     6.2750 O             1 RES     
     417 O           45.5200    36.9650     7.4450 O             1 RES     
     418 O           42.3600    47.1630     6.9220 O             1 RES     
     419 O           21.7830    13.9840    12.3470 O             1 RES     
     420 Si           4.6720    42.4670    14.7490 Si            1 RES     
     421 O           44.6130    34.5780    14.3020 O             1 RES     
     422 Si          14.1290    22.9800    14.7380 Si            1 RES     
     423 Si          38.2540    43.6100     8.9210 Si            1 RES     
     424 O           17.5590    27.3140    12.9220 O             1 RES     
     425 O            3.3950    11.3600    11.7150 O             1 RES     
     426 Si           6.1610     4.5190     2.9570 Si            1 RES     
     427 Si          35.9990     4.7990     5.4630 Si            1 RES     
     428 OS          31.9370    24.6540    15.5530 OS            1 RES     
     429 O           40.4460     8.8940    11.2490 O             1 RES     
     430 Si          36.3780     8.7640     9.1110 Si            1 RES     
     431 Si           1.8180    27.6390    12.3530 Si            1 RES     
     432 O           47.8010    37.1470    12.8070 O             1 RES     
     433 OS           6.0320    28.5880    14.6560 OS            1 RES     
     434 O           11.1920    45.1340    13.1630 O             1 RES     
     435 O           48.1120    47.4380    10.4120 O             1 RES     
     436 O           39.5130    20.8610     8.2070 O             1 RES     
     437 O            7.0610     3.7190    13.2660 O             1 RES     
     438 O           26.4280    34.1630    11.4740 O             1 RES     
     439 Si          33.3770     3.5300     3.4640 Si            1 RES     
     440 O           16.2090    28.5900     2.5190 O             1 RES     
     441 Si          47.5000    16.6790    14.5240 Si            1 RES     
     442 O           36.1180    48.2970     8.6890 O             1 RES     
     443 O           46.7490    17.9500     3.0500 O             1 RES     
     444 O           41.6860    42.9810     6.6740 O             1 RES     
     445 O           37.4760    12.5040     5.3120 O             1 RES     
     446 Si          24.7900    13.2300     6.2040 Si            1 RES     
     447 O           38.1530     4.6200    13.3710 O             1 RES     
     448 O            9.6770    32.6350    11.3050 O             1 RES     
     449 Si          33.9690    22.8690     3.4780 Si            1 RES     
     450 O           43.9820    37.9620     9.3120 O             1 RES     
     451 Si          39.8800    10.0190    14.4640 Si            1 RES     
     452 Si          12.2740    34.9140     7.4100 Si            1 RES     
     453 OS          48.1120    31.3340    14.2630 OS            1 RES     
     454 O           25.0010    18.4920    11.1670 O             1 RES     
     455 O            2.7600    24.2130    10.4020 O             1 RES     
     456 O           42.9580    26.1660    11.8200 O             1 RES     
     457 O           45.1440    14.4450    11.7480 O             1 RES     
     458 Si          40.0110    39.8830     8.6920 Si            1 RES     
     459 O           30.9400    26.7240    14.3070 O             1 RES     
     460 O            4.8870    30.6080    12.7110 O             1 RES     
     461 Si          29.8400     5.9120    14.2460 Si            1 RES     
     462 O           36.7400    29.8300     5.2550 O             1 RES     
     463 Si          29.9620     2.8120    14.3510 Si            1 RES     
     464 Si          16.6150    44.7830     8.8650 Si            1 RES     
     465 O           14.1100    11.8590     9.6930 O             1 RES     
     466 O            2.0850    44.1560     6.4310 O             1 RES     
     467 O           39.2760    49.2800    12.1610 O             1 RES     
     468 Si          39.0470    45.4520    11.2560 Si            1 RES     
     469 Si          46.1120    42.6170    10.5030 Si            1 RES     
     470 Si          15.9470     2.3680     7.5480 Si            1 RES     
     471 Si          12.7670    44.5550    12.9780 Si            1 RES     
     472 O            9.2800    23.5000     7.5290 O             1 RES     
     473 O           40.7000    34.4120    12.2590 O             1 RES     
     474 O           37.3970    49.2820    10.3440 O             1 RES     
     475 O           27.2990     9.9210     4.3170 O             1 RES     
     476 OS          38.9710    38.8380    14.4190 OS            1 RES     
     477 O           47.5000    17.2100     9.6140 O             1 RES     
     478 O           10.7770    40.0520     8.7900 O             1 RES     
     479 OS          21.3040     5.7590    16.2490 OS            1 RES     
     480 O           17.1220    19.9280    13.5530 O             1 RES     
     481 Si          24.9320    24.8970     5.9010 Si            1 RES     
     482 Si          46.2280    36.8130    12.7060 Si            1 RES     
     483 O           17.5710     7.1020    13.6460 O             1 RES     
     484 OS           4.0240    35.2560    14.7380 OS            1 RES     
     485 O            3.9580    31.7320     3.9260 O             1 RES     
     486 O           30.0340    48.1820     5.4990 O             1 RES     
     487 Si          13.4320    27.8980    13.9180 Si            1 RES     
     488 Si           2.3960     0.3410    12.1610 Si            1 RES     
     489 Si           1.3740    24.8670    10.7920 Si            1 RES     
     490 O           32.8560    14.0160     5.4360 O             1 RES     
     491 Si          10.6450    14.5730    14.5960 Si            1 RES     
     492 O            5.0360    32.8140    11.2680 O             1 RES     
     493 O            4.3950     1.0660     5.6080 O             1 RES     
     494 Si          11.4700    14.6680     9.6650 Si            1 RES     
     495 O           45.4260    12.4360     7.7160 O             1 RES     
     496 Si          39.5160    33.9090    11.3150 Si            1 RES     
     497 O           42.7260    45.9040    11.9400 O             1 RES     
     498 O           21.7830     5.7500    13.3060 O             1 RES     
     499 O            3.4140    40.7410     9.3500 O             1 RES     
     500 O           34.3490    32.3610     3.7950 O             1 RES     
     501 O            4.0670    45.7170    13.0380 O             1 RES     
     502 O           16.5320    25.6030    11.2150 O             1 RES     
     503 O            8.3430    40.2150     9.8420 O             1 RES     
     504 O            4.0360    25.3720     8.7120 O             1 RES     
     505 O           30.6800    45.8030     9.3590 O             1 RES     
     506 O           10.0900    10.7120     6.1550 O             1 RES     
     507 O           19.1940    17.1920     5.2050 O             1 RES     
     508 O           37.1160    48.2080    12.3700 O             1 RES     
     509 OS          21.3010    24.0450    16.2710 OS            1 RES     
     510 Si          11.3670    16.3290    12.1810 Si            1 RES     
     511 O           21.0180    22.6280    14.1260 O             1 RES     
     512 O           35.5170    49.9290     1.5800 O             1 RES     
     513 O            3.1960    13.4610     3.7560 O             1 RES     
     514 O            4.0060    30.3250     6.5690 O             1 RES     
     515 Si          39.5480    34.3190     5.9030 Si            1 RES     
     516 Si          19.5940    18.6870     4.7920 Si            1 RES     
     517 O           15.5400    11.8900    12.5810 O             1 RES     
     518 OS          37.5660    43.9420    14.5470 OS            1 RES     
     519 Si           3.2760    22.0430     6.8940 Si            1 RES     
     520 Si          16.4430     3.1290    10.4140 Si            1 RES     
     521 O           34.7450    20.4650     6.8190 O             1 RES     
     522 O           42.7410    49.4860     7.9210 O             1 RES     
     523 O            9.6600    25.8890     8.2980 O             1 RES     
     524 Si          14.1900    40.4600     5.9330 Si            1 RES     
     525 O            2.1890     7.9920     5.7940 O             1 RES     
     526 O           16.4940    21.9160    12.0070 O             1 RES     
     527 O            8.7360    23.7110    12.1360 O             1 RES     
     528 OS          13.5230    21.9240    15.8210 OS            1 RES     
     529 O            9.6740     3.0890     7.3500 O             1 RES     
     530 Si          45.4850     2.3080     9.1260 Si            1 RES     
     531 O           34.5530     1.7420     7.1130 O             1 RES     
     532 Si          47.6950    46.8240     4.1620 Si            1 RES     
     533 O           42.5580    35.6650    13.9000 O             1 RES     
     534 O            9.0940    31.8780     9.0570 O             1 RES     
     535 O           32.8540    11.6640    10.2560 O             1 RES     
     536 O           39.9370    12.6720     5.1830 O             1 RES     
     537 O           42.7870     7.5880     3.9020 O             1 RES     
     538 O           41.5110    44.6970    13.8950 O             1 RES     
     539 O           27.3630    49.9370    13.8480 O             1 RES     
     540 Si           3.5110    26.4870     7.6910 Si            1 RES     
     541 O           24.8100    40.6180     2.1530 O             1 RES     
     542 Si          33.1190    31.9260    14.0560 Si            1 RES     
     543 OS          28.0830    19.4000    14.1250 OS            1 RES     
     544 Si          45.3360    48.4560     5.2530 Si            1 RES     
     545 O           15.0890    16.2570    10.7830 O             1 RES     
     546 O            1.7470    25.2300     4.6450 O             1 RES     
     547 O           20.2430    49.6870    11.9420 O             1 RES     
     548 Si           1.9550    42.6290     6.7790 Si            1 RES     
     549 Si          21.5380     3.5220     7.4470 Si            1 RES     
     550 O           17.2980    45.0130    10.2930 O             1 RES     
     551 O           14.1450    39.2150     6.8920 O             1 RES     
     552 O           10.4990    19.3050     7.6740 O             1 RES     
     553 Si          14.9070     7.2060     6.9330 Si            1 RES     
     554 OS          35.9940    28.8700    14.4490 OS            1 RES     
     555 Si          28.6810    25.7310     9.3460 Si            1 RES     
     556 O           35.3300    30.3750     2.9760 O             1 RES     
     557 Si           8.6830    43.2050     7.6990 Si            1 RES     
     558 O           14.0870    29.7210     3.3030 O             1 RES     
     559 O           19.1870    21.2940    12.9720 O             1 RES     
     560 O           33.0820    22.8120    10.2330 O             1 RES     
     561 Si           9.8810    40.5260    12.9850 Si            1 RES     
     562 O           47.5190    36.2220     3.8790 O             1 RES     
     563 Si          28.5250     6.5820    10.1990 Si            1 RES     
     564 O           10.7470    36.0950    11.4710 O             1 RES     
     565 Si          47.4500    17.4220     4.3660 Si            1 RES     
     566 O           28.1610    15.8470     6.3670 O             1 RES     
     567 OS           1.1650    22.8170    14.2730 OS            1 RES     
     568 O           20.9420    35.2100    13.7210 O             1 RES     
     569 O           44.8110     0.9100     8.5730 O             1 RES     
     570 Si          44.9640     1.5540    14.1870 Si            1 RES     
     571 O           18.5750    27.3960     6.6910 O             1 RES     
     572 O           26.1090     3.3020     3.9990 O             1 RES     
     573 Si          42.6060    34.7230     9.4340 Si            1 RES     
     574 Si          45.3720    10.9610     7.0310 Si            1 RES     
     575 O           22.5860    29.5690     3.9380 O             1 RES     
     576 Si          22.7510    32.3970    13.7560 Si            1 RES     
     577 O           46.9910     8.4630    12.3190 O             1 RES     
     578 Si          40.2970    31.3540     6.4800 Si            1 RES     
     579 Si           6.0960    33.9830    10.8440 Si            1 RES     
     580 O           12.7440    30.9830     8.8940 O             1 RES     
     581 O           46.1210     1.2430    12.8700 O             1 RES     
     582 O           26.2930    30.5420     3.2220 O             1 RES     
     583 OS          24.6990    25.6840    14.8190 OS            1 RES     
     584 O            7.8820    24.5560     9.3200 O             1 RES     
     585 O           27.0360    22.2950     8.3600 O             1 RES     
     586 O           25.2950     0.7040    10.3780 O             1 RES     
     587 Si          24.9280    17.5040     7.8380 Si            1 RES     
     588 O           48.6180     4.1440    10.7340 O             1 RES     
     589 O           25.6520    28.5460     7.8160 O             1 RES     
     590 O           19.8470    24.9840     6.4890 O             1 RES     
     591 Si          41.6370    12.8030    10.9200 Si            1 RES     
     592 Si          35.3520     1.3890    12.1150 Si            1 RES     
     593 Si          46.8970    37.7350     7.7620 Si            1 RES     
     594 O           26.2440     7.4510     2.2640 O             1 RES     
     595 O            5.3780    35.8640     6.8210 O             1 RES     
     596 Si          29.6910    10.9870    13.0470 Si            1 RES     
     597 O           45.1740    27.8150     2.8680 O             1 RES     
     598 Si          43.8770    27.3760    11.5510 Si            1 RES     
     599 Si          11.7030    38.3260    14.0660 Si            1 RES     
     600 Si          12.5270     8.5340     8.2720 Si            1 RES     
     601 O            3.5620    28.0480     7.7900 O             1 RES     
     602 O            5.2150    22.8920     2.7460 O             1 RES     
     603 O           46.5290    22.0670     9.2400 O             1 RES     
     604 Si          13.1480    15.3560     5.0550 Si            1 RES     
     605 O           24.9450    29.7810    11.9010 O             1 RES     
     606 O            0.0590    17.7840     9.3110 O             1 RES     
     607 O           19.1170    13.8090     9.2550 O             1 RES     
     608 O            4.0670    37.3420     4.9070 O             1 RES     
     609 O           36.9140    10.2500     9.4460 O             1 RES     
     610 O           35.5640     6.3480     5.5660 O             1 RES     
     611 O           29.1860    38.1350    12.6570 O             1 RES     
     612 Si          31.8730    37.3300     3.6020 Si            1 RES     
     613 O           42.7740     3.8650     8.6890 O             1 RES     
     614 O           49.9610    33.5230     2.2830 O             1 RES     
     615 O           36.2550    26.7060     8.7730 O             1 RES     
     616 Si          14.0130    15.1700    11.1740 Si            1 RES     
     617 O            3.7870    16.7630    12.8830 O             1 RES     
     618 OS          25.4310    34.6270    14.8470 OS            1 RES     
     619 Si          48.5450     5.0490    12.0960 Si            1 RES     
     620 Si          22.1770    15.5760    12.9460 Si            1 RES     
     621 Si          49.6620    41.8330    13.8930 Si            1 RES     
     622 Si          30.7570    28.2600    14.2650 Si            1 RES     
     623 O           40.6880    22.2130     4.0540 O             1 RES     
     624 OS          23.5790    35.9590    15.4950 OS            1 RES     
     625 O           14.5790    32.1970     7.4600 O             1 RES     
     626 O           40.8770    38.5600     8.8240 O             1 RES     
     627 O           24.8340    43.0310     2.6420 O             1 RES     
     628 Si          30.0510    19.2360     5.0320 Si            1 RES     
     629 O           32.2550     8.4950     2.8570 O             1 RES     
     630 Si          10.2670    20.7780    14.2660 Si            1 RES     
     631 O           34.4760    30.9950    14.3700 O             1 RES     
     632 O           23.0200    32.1490    12.2200 O             1 RES     
     633 Si           6.2410    43.4290     9.5200 Si            1 RES     
     634 Si          26.1320    27.2990     4.2450 Si            1 RES     
     635 O           39.7030    43.2250     8.3650 O             1 RES     
     636 O            8.5980    46.3720     2.2240 O             1 RES     
     637 Si          34.6490     3.1510     7.7220 Si            1 RES     
     638 O           15.1550    11.3100     5.9300 O             1 RES     
     639 OS          49.2980    28.8440    15.4250 OS            1 RES     
     640 Si           5.3720    10.0700     4.4590 Si            1 RES     
     641 Si          11.8040    33.5990    14.2240 Si            1 RES     
     642 O           42.3490     7.4910    12.1660 O             1 RES     
     643 O           15.4210    40.4660    12.0290 O             1 RES     
     644 O            5.0060     4.4480     4.0530 O             1 RES     
     645 O           19.4280    45.2850     5.8050 O             1 RES     
     646 O           44.4440    46.5930    10.0370 O             1 RES     
     647 O           49.3310    32.3570     9.5320 O             1 RES     
     648 O           30.1120    26.0840     8.9200 O             1 RES     
     649 O           10.4160     1.0990     2.8170 O             1 RES     
     650 O            5.6430    34.8800     9.6260 O             1 RES     
     651 O           10.6130    29.6900     9.5080 O             1 RES     
     652 O           38.9430    30.5190     6.3560 O             1 RES     
     653 O           10.5100     8.1880     5.4640 O             1 RES     
     654 O           18.0080    49.7870    12.4920 O             1 RES     
     655 O           29.9750    18.5390     6.4630 O             1 RES     
     656 Si          43.5010     6.3350    12.2980 Si            1 RES     
     657 O           31.0460    33.8030     5.5130 O             1 RES     
     658 O            8.9270    11.8520    11.1040 O             1 RES     
     659 O           22.6540     0.6510     6.3860 O             1 RES     
     660 O           45.1230    32.2190     9.7350 O             1 RES     
     661 O           15.4250     8.6330     6.4840 O             1 RES     
     662 O           24.3040    33.2740     3.2250 O             1 RES     
     663 O           49.8890    13.0660     8.7600 O             1 RES     
     664 Si           8.1590    11.0630     5.8820 Si            1 RES     
     665 Si           9.7230     6.6800    12.0750 Si            1 RES     
     666 O            3.9800    43.3720    13.5930 O             1 RES     
     667 Si          11.2500     4.1060    12.8800 Si            1 RES     
     668 Si          28.4790     8.4120     7.7260 Si            1 RES     
     669 Si           0.5120     7.5370    12.0020 Si            1 RES     
     670 O            9.6710     5.6550     4.5980 O             1 RES     
     671 OS          13.4000    24.3310    15.2050 OS            1 RES     
     672 O            0.6430    46.6160     2.2410 O             1 RES     
     673 OS          11.0690    12.9990    14.4340 OS            1 RES     
     674 O           47.4550    13.8010     8.3070 O             1 RES     
     675 O           18.8750    25.6890    11.5620 O             1 RES     
     676 Si           9.6420    29.2860     3.6580 Si            1 RES     
     677 O            6.7420    27.7270     7.4510 O             1 RES     
     678 O           29.2080     1.5190    13.8370 O             1 RES     
     679 Si           7.3690    11.2960    10.8940 Si            1 RES     
     680 OS          31.9450    38.3100    15.3200 OS            1 RES     
     681 Si          30.6730    32.5360     9.5370 Si            1 RES     
     682 O           12.3410    33.3180     7.6750 O             1 RES     
     683 Si           5.5320    36.0130     8.4250 Si            1 RES     
     684 Si          23.0290    43.0570    11.1760 Si            1 RES     
     685 Si          40.9590     8.1710     7.5530 Si            1 RES     
     686 O           19.6480    48.2890    13.7740 O             1 RES     
     687 O           34.4150    22.6970     5.0520 O             1 RES     
     688 O           21.5930     3.0260     9.0560 O             1 RES     
     689 Si          35.2580    14.0110    11.5060 Si            1 RES     
     690 O           15.8700    32.0780     9.6110 O             1 RES     
     691 O           27.1660    18.1990     2.9840 O             1 RES     
     692 O            2.9420    29.6550     4.5650 O             1 RES     
     693 Si          25.2930    10.2740    13.0130 Si            1 RES     
     694 Si          41.6730    43.7280     5.2710 Si            1 RES     
     695 O           39.1920     0.5770     7.9150 O             1 RES     
     696 O           12.7510    19.8360     9.1320 O             1 RES     
     697 O           21.9460    42.2760    10.3200 O             1 RES     
     698 Si          27.4560    43.7230    14.4830 Si            1 RES     
     699 O           14.1980    38.2730     2.9000 O             1 RES     
     700 O           22.6260    36.9100    13.1670 O             1 RES     
     701 OS          14.4700    12.5290    14.5470 OS            1 RES     
     702 Si          32.7010    39.1420    14.1330 Si            1 RES     
     703 O           46.6200    17.8880    14.0150 O             1 RES     
     704 Si          15.9120    40.6950    13.5120 Si            1 RES     
     705 O           29.3360    32.1020     8.8840 O             1 RES     
     706 O           49.7930    10.4860     8.6050 O             1 RES     
     707 Si           6.7470    10.0170    13.5860 Si            1 RES     
     708 O           26.2920    12.6820     9.6340 O             1 RES     
     709 O            9.8200    25.0990    10.5220 O             1 RES     
     710 Si          27.4390    19.6000     3.5680 Si            1 RES     
     711 O            6.6230    14.8530     6.6910 O             1 RES     
     712 O            8.6230    49.0540    10.4420 O             1 RES     
     713 O           44.8180    26.8060    10.4470 O             1 RES     
     714 O           11.7380     9.5000     1.6330 O             1 RES     
     715 O           47.2400    46.8150     2.7000 O             1 RES     
     716 Si           3.0300    44.5360    13.2270 Si            1 RES     
     717 O           34.5170    24.8560     9.2050 O             1 RES     
     718 O           20.2360     9.1000    10.6340 O             1 RES     
     719 O           32.3420    21.8730    12.6260 O             1 RES     
     720 Si          25.7150    41.7100     2.8710 Si            1 RES     
     721 O           34.9960    19.4610     9.2060 O             1 RES     
     722 Si          41.4990    19.5180    11.1150 Si            1 RES     
     723 Si          15.2730    10.2900    12.5260 Si            1 RES     
     724 O           36.2120    18.2560     7.4380 O             1 RES     
     725 O           29.3970    36.5730     9.2700 O             1 RES     
     726 Si          22.5850    10.3320    14.4360 Si            1 RES     
     727 O            5.0300    23.2810    10.2570 O             1 RES     
     728 Si           0.3920    42.2210     4.1890 Si            1 RES     
     729 O           49.4230    18.8260    12.6940 O             1 RES     
     730 O           27.1160    27.9850     5.1480 O             1 RES     
     731 OS          48.3670     9.0130    14.5320 OS            1 RES     
     732 Si           8.2650    40.9430     4.4180 Si            1 RES     
     733 O           41.1300    22.0980     6.6650 O             1 RES     
     734 O           44.2080    17.9240    13.6000 O             1 RES     
     735 O           45.5570    31.9600     4.3400 O             1 RES     
     736 O            0.1660    19.6860     6.1490 O             1 RES     
     737 Si          33.2720     8.2920    11.3850 Si            1 RES     
     738 O           22.7000     0.6170     4.0170 O             1 RES     
     739 O           13.0960    47.7250     5.9260 O             1 RES     
     740 Si          22.7790     1.7000     2.8520 Si            1 RES     
     741 O           16.3630    13.3470     5.6630 O             1 RES     
     742 O           30.9870    48.2450    10.0420 O             1 RES     
     743 O           37.2390    49.7590     3.5030 O             1 RES     
     744 Si          30.8900    16.7310     3.3720 Si            1 RES     
     745 OS           7.2980    34.3290    14.7320 OS            1 RES     
     746 O           26.4990    44.3450     9.2110 O             1 RES     
     747 O           40.4460    40.7640    14.2890 O             1 RES     
     748 O           49.2220    26.2600     7.9750 O             1 RES     
     749 O            3.4010    39.1840    11.4160 O             1 RES     
     750 O           33.9070    31.6450     7.3760 O             1 RES     
     751 O           43.4510    15.8270    10.1300 O             1 RES     
     752 Si          46.0430    25.0580     5.6030 Si            1 RES     
     753 OS           5.7560     2.8940    15.1750 OS            1 RES     
     754 O            1.8810    26.1950     7.7000 O             1 RES     
     755 O           17.3560     2.2180    11.3970 O             1 RES     
     756 O            7.1550    17.3080     4.0380 O             1 RES     
     757 Si          42.4350    10.2010     5.9260 Si            1 RES     
     758 Si          40.6900     3.0210    11.3890 Si            1 RES     
     759 Si          44.8770    29.4980    13.5630 Si            1 RES     
     760 O           19.3480     0.7980     2.3270 O             1 RES     
     761 Si           5.6850    29.3760    13.3250 Si            1 RES     
     762 O           19.9280    29.8800    10.9250 O             1 RES     
     763 O           19.4570    20.9430     7.8900 O             1 RES     
     764 O           10.7040    13.2600     9.7220 O             1 RES     
     765 Si           0.4770     1.6020     5.9420 Si            1 RES     
     766 O            9.4100     1.3120    10.7100 O             1 RES     
     767 Si          18.7360    17.6360     9.5480 Si            1 RES     
     768 O            5.7520    47.8330    12.9800 O             1 RES     
     769 O           19.8340     7.1440     8.9810 O             1 RES     
     770 Si          18.1230     8.5540     3.6600 Si            1 RES     
     771 Si           8.9940    33.1040    10.0430 Si            1 RES     
     772 O           35.6350    37.2760     4.9160 O             1 RES     
     773 O           43.9320    30.7370     6.0400 O             1 RES     
     774 Si          10.3410    36.8300     3.1460 Si            1 RES     
     775 O           30.0060    34.1070    13.8750 O             1 RES     
     776 O           33.7480    33.1240    13.3250 O             1 RES     
     777 Si           7.3310    43.7630     4.9050 Si            1 RES     
     778 O           12.4480    23.4040     3.5910 O             1 RES     
     779 O           46.8580    41.0190     2.4920 O             1 RES     
     780 Si          11.1820    20.0760     8.8680 Si            1 RES     
     781 O           32.3270    36.7830     2.1510 O             1 RES     
     782 Si          26.8970    32.7770    12.0530 Si            1 RES     
     783 OS           9.5190    29.2930    14.2260 OS            1 RES     
     784 Si          26.7620     6.1980    14.6850 Si            1 RES     
     785 O           31.1770    38.7570     3.8720 O             1 RES     
     786 O           42.7610    36.9040     6.8720 O             1 RES     
     787 O            0.1790    45.8030    11.0080 O             1 RES     
     788 O           14.9690    39.8680     4.7060 O             1 RES     
     789 O            9.7750    30.5060     2.5650 O             1 RES     
     790 O            9.0660    14.5570    14.6320 O             1 RES     
     791 Si          26.2080    35.7160    11.4330 Si            1 RES     
     792 OS          31.9000    12.8210    15.0330 OS            1 RES     
     793 O           33.8200     1.8110    12.2470 O             1 RES     
     794 O           32.2410    24.6310     8.4590 O             1 RES     
     795 O           44.9250     6.9980    12.2900 O             1 RES     
     796 Si          10.0470     6.9750     9.0140 Si            1 RES     
     797 O            4.9290    13.9990     8.3470 O             1 RES     
     798 Si          23.0970    34.0080     6.9800 Si            1 RES     
     799 O            8.1090     9.4610    13.9870 O             1 RES     
     800 O           35.3680    49.2480     6.6070 O             1 RES     
     801 O           38.6330     3.1870     8.2330 O             1 RES     
     802 O           24.3640    25.9410     9.8980 O             1 RES     
     803 Si           1.3860     4.4330     6.3760 Si            1 RES     
     804 O           36.0720    25.4030    10.9870 O             1 RES     
     805 Si          33.3970     0.4560     4.1020 Si            1 RES     
     806 O           47.7770    45.4010     4.5940 O             1 RES     
     807 O           49.6460     0.9140     7.0600 O             1 RES     
     808 Si          49.7490    42.7510     8.8430 Si            1 RES     
     809 O           47.7090    20.8010    12.2820 O             1 RES     
     810 O           21.0710     5.0660     7.7670 O             1 RES     
     811 Si          17.6200     8.2770    12.5210 Si            1 RES     
     812 O           23.8990     8.0890     8.4830 O             1 RES     
     813 O           44.9940     6.8110     5.0230 O             1 RES     
     814 O           38.3840    27.7090     9.6910 O             1 RES     
     815 Si           2.3000    49.5910     9.1770 Si            1 RES     
     816 O           11.0760    17.9080    12.0650 O             1 RES     
     817 Si           2.4870    45.5200     5.7490 Si            1 RES     
     818 O            5.1070    13.1130     2.0220 O             1 RES     
     819 O           17.3130    17.3870    10.0950 O             1 RES     
     820 O           38.8030    18.8680     3.1010 O             1 RES     
     821 O            6.2230     5.3790     1.6200 O             1 RES     
     822 O           33.8930    37.3990    11.2720 O             1 RES     
     823 O           35.5880    37.9490    13.8270 O             1 RES     
     824 O            5.7350    22.1460    12.4840 O             1 RES     
     825 O           49.2590    31.1290     2.4940 O             1 RES     
     826 OS          32.1490    31.5930    15.2900 OS            1 RES     
     827 Si          30.0550    20.4620     9.8690 Si            1 RES     
     828 O            6.6910    21.9270     4.9560 O             1 RES     
     829 O           17.7340    21.6430     3.5230 O             1 RES     
     830 O           19.7000    45.8050    10.1940 O             1 RES     
     831 OS          49.6900    36.1200    14.0730 OS            1 RES     
     832 O           21.0350    10.2870     8.9720 O             1 RES     
     833 Si           0.3040    11.6260     9.5100 Si            1 RES     
     834 Si          47.8920    39.8850     5.9730 Si            1 RES     
     835 O           11.7290    48.3350    13.3710 O             1 RES     
     836 Si          25.8660    44.0270    10.5700 Si            1 RES     
     837 O            3.1940     0.0020     7.9500 O             1 RES     
     838 O           33.6470    34.4260     4.8550 O             1 RES     
     839 Si          30.7270    42.4020     8.4770 Si            1 RES     
     840 Si          34.7700    37.8690     3.8180 Si            1 RES     
     841 O           29.2810    20.1280    11.1720 O             1 RES     
     842 O           18.3850    35.8390     4.7270 O             1 RES     
     843 Si          45.2900    25.8680     9.3100 Si            1 RES     
     844 OS           9.1420    20.1120    15.1910 OS            1 RES     
     845 Si          42.5050    22.3130    10.4510 Si            1 RES     
     846 Si          15.7320    29.5360     3.7050 Si            1 RES     
     847 OS          16.8450    36.9720    15.4950 OS            1 RES     
     848 Si           9.6690    47.8430     5.4930 Si            1 RES     
     849 O           12.3740    48.9220     8.1810 O             1 RES     
     850 O           24.6360     0.9360     7.9300 O             1 RES     
     851 O           19.8080     3.0050     3.2320 O             1 RES     
     852 OS          45.8700     1.4490    15.4480 OS            1 RES     
     853 O           35.4430     0.0010    12.9260 O             1 RES     
     854 OS          20.8050    15.8240    14.3030 OS            1 RES     
     855 O            6.8130    27.9240     9.9120 O             1 RES     
     856 O           36.6000    38.8690     6.7020 O             1 RES     
     857 Si          10.1060    19.0830    11.7060 Si            1 RES     
     858 O           19.5560    15.3870     7.1320 O             1 RES     
     859 O           13.4780    47.4240     3.3610 O             1 RES     
     860 O           33.1620    11.7520    13.1050 O             1 RES     
     861 O           10.6930    26.6800     1.2410 O             1 RES     
     862 O            7.3390    23.2290    14.0230 O             1 RES     
     863 O           22.8730    22.8310    11.1670 O             1 RES     
     864 O           11.8470    21.1590     4.2940 O             1 RES     
     865 Si          21.9760    12.3940    12.3550 Si            1 RES     
     866 O           12.8560     9.6200     9.3420 O             1 RES     
     867 Si          15.5080    38.7700     3.6850 Si            1 RES     
     868 Si           1.0020    12.9160    13.8750 Si            1 RES     
     869 O           37.2780    42.6790     9.7680 O             1 RES     
     870 O            8.5470    10.3990     4.4330 O             1 RES     
     871 O            4.3780    46.6300     8.9120 O             1 RES     
     872 O           29.9050    45.6210     6.1860 O             1 RES     
     873 Si          33.6080    14.0500     6.7690 Si            1 RES     
     874 O            6.9040    14.7780     2.4800 O             1 RES     
     875 O           17.7290    46.9900     5.8550 O             1 RES     
     876 O           13.0630     2.0570     5.8520 O             1 RES     
     877 Si          18.2760    28.5300    13.6040 Si            1 RES     
     878 O           14.9550    20.6690     8.2220 O             1 RES     
     879 O           45.6690    20.0360    13.0090 O             1 RES     
     880 O           26.1070    41.4050     4.3750 O             1 RES     
     881 O           26.7350    26.8440     2.9100 O             1 RES     
     882 O           30.0560     2.9350     5.7890 O             1 RES     
     883 O           45.2980    21.2120     4.8160 O             1 RES     
     884 OS          25.4760     1.0680    15.2540 OS            1 RES     
     885 O            9.9770    10.8910     9.1250 O             1 RES     
     886 Si          15.7720    32.3240    11.1840 Si            1 RES     
     887 O           25.9570    32.4380     4.9530 O             1 RES     
     888 OS          49.0270    41.1120    15.1460 OS            1 RES     
     889 O           49.6260    38.0500     4.0950 O             1 RES     
     890 Si          27.7560    22.5190     3.0090 Si            1 RES     
     891 O            6.1310    18.0340    12.6980 O             1 RES     
     892 Si          29.6580    12.5070     4.9570 Si            1 RES     
     893 Si          20.6900     3.4160     4.4270 Si            1 RES     
     894 O           18.0140    37.6140     6.4480 O             1 RES     
     895 Si           7.4400    49.6480     6.7860 Si            1 RES     
     896 O           11.4600    42.1930     3.2080 O             1 RES     
     897 O            7.4840    42.2850     4.2520 O             1 RES     
     898 Si          49.3520    36.8980    12.8130 Si            1 RES     
     899 O           20.4090    41.3470     8.5420 O             1 RES     
     900 O           27.7690    15.8050     3.7780 O             1 RES     
     901 O           20.8050    22.5490     6.6200 O             1 RES     
     902 O           47.1940     9.1690     3.9050 O             1 RES     
     903 O           43.1990    32.2580    11.8910 O             1 RES     
     904 O            2.5250     1.7930    12.7490 O             1 RES     
     905 O           15.8720    31.1240     3.5680 O             1 RES     
     906 OS          26.3600     7.3580    15.6490 OS            1 RES     
     907 O           36.9670    23.0980    12.0190 O             1 RES     
     908 O           24.6860     5.7720     8.6550 O             1 RES     
     909 Si           3.3320    17.0320     2.8190 Si            1 RES     
     910 O           46.1960    19.5610     9.2260 O             1 RES     
     911 O            4.2990    11.6510     9.3740 O             1 RES     
     912 Si          43.9040    20.4480     4.8120 Si            1 RES     
     913 O           24.8680    35.8760    12.2940 O             1 RES     
     914 O           23.6580    18.9010     3.6840 O             1 RES     
     915 Si          14.1220    37.2970    12.4430 Si            1 RES     
     916 Si          48.3240     3.2150     9.4960 Si            1 RES     
     917 OS          21.4050     3.7750    14.5830 OS            1 RES     
     918 O            8.7600    45.0380    12.2370 O             1 RES     
     919 Si          35.3480    34.2110     9.5120 Si            1 RES     
     920 Si          47.0210     0.0510    12.4420 Si            1 RES     
     921 OS          37.9700    41.1620    15.2090 OS            1 RES     
     922 O           19.9310    33.8980     5.2210 O             1 RES     
     923 O           41.9330    37.9030     4.7360 O             1 RES     
     924 Si           6.2890    17.4690     9.5750 Si            1 RES     
     925 O           25.4360    11.1810    11.7760 O             1 RES     
     926 O           10.2860     1.4390     5.2360 O             1 RES     
     927 O           23.4720    43.8750     7.4750 O             1 RES     
     928 O            6.0160    44.9060     9.1190 O             1 RES     
     929 Si          12.5860     9.9290     3.0050 Si            1 RES     
     930 O            2.3750    15.4810     5.2860 O             1 RES     
     931 O           27.3190    29.2610    12.4900 O             1 RES     
     932 Si           5.0570    13.0090     9.6470 Si            1 RES     
     933 OS           0.8810    13.8890    15.1340 OS            1 RES     
     934 O           18.5420     5.3050     7.9260 O             1 RES     
     935 O           48.6410    43.7890     8.4790 O             1 RES     
     936 O           11.8310    30.9040    11.1600 O             1 RES     
     937 O           35.0670    13.4710     6.3520 O             1 RES     
     938 Si          42.0050    38.9920     3.5840 Si            1 RES     
     939 O            8.0640    40.0100     3.0870 O             1 RES     
     940 Si          28.7100    37.9400     8.8920 Si            1 RES     
     941 Si           1.4570     7.3840     7.0950 Si            1 RES     
     942 O           19.5950    31.6930     6.4870 O             1 RES     
     943 Si          20.2910    10.6330    10.3250 Si            1 RES     
     944 O           49.4830     9.5720     4.3120 O             1 RES     
     945 Si          49.2360    30.9390    10.2300 Si            1 RES     
     946 O           29.8460    41.2250     8.0550 O             1 RES     
     947 Si          19.0220    25.9820     7.4110 Si            1 RES     
     948 O           23.4690    13.3370     9.5400 O             1 RES     
     949 O           36.7630    30.9950    13.0960 O             1 RES     
     950 OS          26.5620    27.7310    14.5880 OS            1 RES     
     951 Si          23.9240    24.9980     8.7160 Si            1 RES     
     952 O           33.2710    37.9530    13.2690 O             1 RES     
     953 O           22.4530    21.1830    13.0020 O             1 RES     
     954 OS          11.9860    33.5310    15.7600 OS            1 RES     
     955 O           25.8540    25.8150     5.0220 O             1 RES     
     956 O           40.4720    31.4740     8.0220 O             1 RES     
     957 Si          49.0790     9.2880     7.9830 Si            1 RES     
     958 O            6.2560     6.2770    13.5190 O             1 RES     
     959 Si          34.2060    40.7980     4.4520 Si            1 RES     
     960 O           38.6100    37.7160     3.1690 O             1 RES     
     961 Si           7.0770    20.2490     8.8390 Si            1 RES     
     962 OS           2.5350     9.1180    14.9460 OS            1 RES     
     963 Si          48.9090    46.5840    11.4290 Si            1 RES     
     964 Si          34.5520     9.9310     7.0270 Si            1 RES     
     965 Si          20.0360    31.2220    10.1190 Si            1 RES     
     966 Si          27.6670    16.0710     7.8400 Si            1 RES     
     967 O           28.8060    13.8260     5.0430 O             1 RES     
     968 O           22.2570    24.7790    14.1770 O             1 RES     
     969 Si          24.8180    12.7050    10.9700 Si            1 RES     
     970 Si          48.9160    33.1910     8.2340 Si            1 RES     
     971 Si          19.3220    38.0950    12.5930 Si            1 RES     
     972 Si           1.9380    35.8990    11.6940 Si            1 RES     
     973 OS           5.2630    22.3380    14.8900 OS            1 RES     
     974 O           49.5410    47.6210    12.5080 O             1 RES     
     975 O           45.7460    37.2740    11.2740 O             1 RES     
     976 O           41.7790    30.2140    12.0810 O             1 RES     
     977 O            9.6630    30.5690    12.2770 O             1 RES     
     978 Si          19.9030    14.9890     8.5670 Si            1 RES     
     979 O           25.7710     4.4830     6.4720 O             1 RES     
     980 O           45.7780    22.3830    11.6510 O             1 RES     
     981 Si          10.2130    48.5270    13.7610 Si            1 RES     
     982 O           48.9850    32.2290     4.6010 O             1 RES     
     983 Si          37.7750    39.8480     6.4840 Si            1 RES     
     984 OS          12.0190    38.7130    15.5210 OS            1 RES     
     985 O            8.1810     1.0180     6.6000 O             1 RES     
     986 OS           1.8350     6.6180    15.5940 OS            1 RES     
     987 Si          29.5330    33.3360     5.4390 Si            1 RES     
     988 O           46.2350    23.4670     5.7550 O             1 RES     
     989 Si          17.2150    28.3100     6.4770 Si            1 RES     
     990 O           23.2530     7.7300     5.9480 O             1 RES     
     991 O           20.2230    41.7250     6.0320 O             1 RES     
     992 Si          14.1060     2.9270    12.3560 Si            1 RES     
     993 O           19.4250    26.0820     8.9530 O             1 RES     
     994 Si           7.2080    48.9900     9.7760 Si            1 RES     
     995 O           13.0180    37.7460    13.3970 O             1 RES     
     996 Si          49.0280    16.6680     9.7360 Si            1 RES     
     997 O           38.7140    39.7180     7.7470 O             1 RES     
     998 OS           9.2220    24.8510    14.4470 OS            1 RES     
     999 Si          30.7840    46.8420     5.9520 Si            1 RES     
    1000 O           10.4830    29.8580     4.8470 O             1 RES     
    1001 Si          18.2410    12.9120    10.1490 Si            1 RES     
    1002 Si          41.1410    35.1330    13.6130 Si            1 RES     
    1003 O           10.7840    43.1810    10.3760 O             1 RES     
    1004 O           42.2450    42.8690     9.2390 O             1 RES     
    1005 Si          28.5000    22.7930     8.3570 Si            1 RES     
    1006 O            4.2370    21.0310    10.8790 O             1 RES     
    1007 O           31.8450     8.4730    11.9550 O             1 RES     
    1008 O           44.0220    22.2570     9.9290 O             1 RES     
    1009 Si          39.1410    49.3650     6.8780 Si            1 RES     
    1010 O           10.8590    15.6080    13.4570 O             1 RES     
    1011 Si           5.3790     0.2450     4.5480 Si            1 RES     
    1012 O            8.0870    10.3600     7.2540 O             1 RES     
    1013 O           29.9120    43.3700     9.5960 O             1 RES     
    1014 Si          30.9070    25.1600    14.4120 Si            1 RES     
    1015 Si          43.3470    17.3420     9.7490 Si            1 RES     
    1016 O           21.2180    38.5560     4.1250 O             1 RES     
    1017 Si          46.2780    18.2610    10.0530 Si            1 RES     
    1018 O           19.3690    39.5920     7.2420 O             1 RES     
    1019 O           47.3990    13.5140     4.6950 O             1 RES     
    1020 Si          29.8150    33.5000    12.2720 Si            1 RES     
    1021 O           29.7090     4.6080     3.9520 O             1 RES     
    1022 O           24.4790     6.5760     3.9720 O             1 RES     
    1023 Si          45.4830     0.4720     2.9760 Si            1 RES     
    1024 O           42.9600    21.7040     4.9030 O             1 RES     
    1025 O           11.2310    19.0010     2.7990 O             1 RES     
    1026 Si          30.8700     8.1510     3.5780 Si            1 RES     
    1027 OS          16.8270    17.6410    14.8210 OS            1 RES     
    1028 Si          10.7240    44.5390     9.5680 Si            1 RES     
    1029 O           44.5910     3.2770    10.0920 O             1 RES     
    1030 O           40.6880    12.9890    12.1640 O             1 RES     
    1031 O           23.7620    34.0750     5.5450 O             1 RES     
    1032 O           28.5770    19.4320     4.6810 O             1 RES     
    1033 Si          48.8450    32.4750     3.0400 Si            1 RES     
    1034 OS          40.7360    34.0150    14.6210 OS            1 RES     
    1035 O            2.2640    28.7650    11.3580 O             1 RES     
    1036 O            8.7090    18.4050    12.0580 O             1 RES     
    1037 Si          36.6600    29.8290     3.7120 Si            1 RES     
    1038 O           24.6190    21.3980     7.7070 O             1 RES     
    1039 Si          39.7760    27.3710    10.4760 Si            1 RES     
    1040 O           48.4250    30.9370    11.5870 O             1 RES     
    1041 O           36.1050     3.2680     8.2910 O             1 RES     
    1042 O           12.4430     1.3040     8.2790 O             1 RES     
    1043 Si          33.4360    16.4340    10.8380 Si            1 RES     
    1044 Si          30.7530     4.1730     5.0870 Si            1 RES     
    1045 O           10.8410    34.8060    13.8500 O             1 RES     
    1046 O            6.1070    38.0600     5.8620 O             1 RES     
    1047 OS           4.9900    43.2930    16.0260 OS            1 RES     
    1048 O           38.6680    36.4770     8.9480 O             1 RES     
    1049 Si          11.1630     9.6020     5.7720 Si            1 RES     
    1050 O           39.5670    11.5030    13.8690 O             1 RES     
    1051 Si           7.2630    35.2140    13.4180 Si            1 RES     
    1052 OS          29.3670     2.6850    15.8010 OS            1 RES     
    1053 Si          40.3730    14.4940     8.7190 Si            1 RES     
    1054 O           49.6810    32.3530     7.0340 O             1 RES     
    1055 O           14.2170    22.5440    13.1760 O             1 RES     
    1056 O           33.6960    15.5260     7.1440 O             1 RES     
    1057 O           34.6540    49.6130     3.8450 O             1 RES     
    1058 O            0.6790    30.3410     5.3820 O             1 RES     
    1059 Si          19.0850    48.6460    12.2470 Si            1 RES     
    1060 OS           1.4720    11.5150    14.5240 OS            1 RES     
    1061 Si          22.1510     2.9900    10.5480 Si            1 RES     
    1062 O            2.4910    18.3390     2.9200 O             1 RES     
    1063 Si          46.3210    41.5570     3.9180 Si            1 RES     
    1064 O           35.5150    12.7300     1.6720 O             1 RES     
    1065 O           30.9560    10.9060    13.9280 O             1 RES     
    1066 O           20.6750    35.7400     9.5880 O             1 RES     
    1067 O           44.1660    26.3470     8.2340 O             1 RES     
    1068 Si           0.5010    25.4290     7.9210 Si            1 RES     
    1069 O           25.2210    39.4880     5.9300 O             1 RES     
    1070 O           46.3090    35.2350    12.6710 O             1 RES     
    1071 Si          37.1430    14.4360    13.9330 Si            1 RES     
    1072 O           19.1550     7.3510     3.9290 O             1 RES     
    1073 O           24.3180    25.4750     7.2570 O             1 RES     
    1074 O           44.5330    42.4470    10.6150 O             1 RES     
    1075 O           32.8890    37.2560     8.9580 O             1 RES     
    1076 O            1.4300     7.6250    13.2710 O             1 RES     
    1077 Si          10.0770    18.5520     6.3800 Si            1 RES     
    1078 Si          15.4110    12.2030     8.9330 Si            1 RES     
    1079 Si          23.5250    22.0570    12.3530 Si            1 RES     
    1080 O           32.6580    29.0700    10.7970 O             1 RES     
    1081 O           18.9780    11.5120    10.0640 O             1 RES     
    1082 O           25.6930    19.3670    13.4870 O             1 RES     
    1083 O           42.1530     9.8200     4.4030 O             1 RES     
    1084 O           31.5440    17.1520    13.7880 O             1 RES     
    1085 Si          37.0160    43.9250    13.0280 Si            1 RES     
    1086 O           18.3820     7.7760    11.1990 O             1 RES     
    1087 O           38.9300    21.2260    12.9580 O             1 RES     
    1088 Si          19.9120    25.9010    10.4390 Si            1 RES     
    1089 O           29.4740    12.4970    12.3920 O             1 RES     
    1090 Si          21.2670    39.6860     3.0300 Si            1 RES     
    1091 O           10.3610    44.5950     2.8460 O             1 RES     
    1092 O           19.7400    45.9700     3.4200 O             1 RES     
    1093 Si          18.8430    10.6020     5.8770 Si            1 RES     
    1094 O           11.3070    24.0840     8.6510 O             1 RES     
    1095 O           21.1670     1.4560    13.9310 O             1 RES     
    1096 O            8.0970    29.2030     4.1690 O             1 RES     
    1097 O           33.8360    10.8010     2.9710 O             1 RES     
    1098 O            1.1100    20.6060     3.1090 O             1 RES     
    1099 Si          46.7980    20.7630     8.3390 Si            1 RES     
    1100 O           12.9400    38.4750     8.8170 O             1 RES     
    1101 Si          29.6600    44.8580    10.0510 Si            1 RES     
    1102 O           11.2120    15.4640     8.3510 O             1 RES     
    1103 Si          39.6190     2.0610     8.6460 Si            1 RES     
    1104 O           19.3910    39.6610    12.7410 O             1 RES     
    1105 O           47.5620     7.4470     5.5700 O             1 RES     
    1106 Si          39.2700    36.7440    10.3940 Si            1 RES     
    1107 O           43.0340    18.0030     8.3440 O             1 RES     
    1108 Si           7.5990    15.1760    14.5160 Si            1 RES     
    1109 Si          31.7660     6.8110     9.2550 Si            1 RES     
    1110 O            2.4310    20.7180     6.6690 O             1 RES     
    1111 Si          41.7730    44.6900    12.3280 Si            1 RES     
    1112 Si          37.5220    22.0300    13.0870 Si            1 RES     
    1113 O           28.3720    33.8490     7.0030 O             1 RES     
    1114 O           12.9090    27.3060    12.5350 O             1 RES     
    1115 Si           4.1990     5.0560    10.8450 Si            1 RES     
    1116 O           39.9540     5.4880     5.1340 O             1 RES     
    1117 OS          20.7270    20.6660    15.7570 OS            1 RES     
    1118 Si           2.1290    14.5270     4.0690 Si            1 RES     
    1119 Si          23.8080     8.7590     7.0580 Si            1 RES     
    1120 O           15.0930     0.7780     4.4410 O             1 RES     
    1121 O           34.8950     4.1750     6.5650 O             1 RES     
    1122 O           34.3920    29.4680    12.5620 O             1 RES     
    1123 Si          15.1170    13.2130    13.2810 Si            1 RES     
    1124 O            3.3300    22.7720     8.3380 O             1 RES     
    1125 O           18.1330     9.5050     2.4330 O             1 RES     
    1126 O           12.2920    44.5360     9.1110 O             1 RES     
    1127 O            6.9350    20.8710     7.3810 O             1 RES     
    1128 Si           8.2440    37.4110     8.3920 Si            1 RES     
    1129 O           25.8330    15.4440    13.8280 O             1 RES     
    1130 Si          13.5490    34.3190    11.9030 Si            1 RES     
    1131 Si          19.7110     7.5830    10.4450 Si            1 RES     
    1132 Si          28.6080    15.3720     4.9640 Si            1 RES     
    1133 O           39.9930     4.1720     3.0720 O             1 RES     
    1134 Si          25.0340    32.0940     8.5620 Si            1 RES     
    1135 OS          40.7010     2.1550    15.2440 OS            1 RES     
    1136 Si          20.9400    24.0480    14.7090 Si            1 RES     
    1137 O           43.6290    33.2150     5.0040 O             1 RES     
    1138 Si          11.3430    41.5240     4.6710 Si            1 RES     
    1139 Si          27.0130    13.1390     8.3330 Si            1 RES     
    1140 Si          48.9600    13.6160     4.9470 Si            1 RES     
    1141 O           26.9220    29.1920     9.9540 O             1 RES     
    1142 Si           6.3490    26.5680     6.4490 Si            1 RES     
    1143 O           26.2180     3.1580    10.9840 O             1 RES     
    1144 O           33.2120    16.3800     9.3320 O             1 RES     
    1145 O           22.4110    48.4080    14.1910 O             1 RES     
    1146 O            6.4260    34.7250    12.1420 O             1 RES     
    1147 O           19.1830    48.4110     2.8480 O             1 RES     
    1148 Si           2.8540    46.5740     8.6460 Si            1 RES     
    1149 O           40.5630    35.5950     5.7950 O             1 RES     
    1150 O           33.2630    10.6490     7.6910 O             1 RES     
    1151 O           30.9350    23.7710    13.4950 O             1 RES     
    1152 O           44.8170    49.4930     6.4370 O             1 RES     
    1153 O           15.8050     0.2400    11.7960 O             1 RES     
    1154 Si          29.1690    40.2680     6.9740 Si            1 RES     
    1155 Si           3.3640     3.1370    13.0630 Si            1 RES     
    1156 O           24.2300    32.0940     9.9360 O             1 RES     
    1157 OS          12.1450    28.5980    14.5190 OS            1 RES     
    1158 O           36.0060    14.0500    12.9430 O             1 RES     
    1159 Si           4.1400    31.8930    12.2360 Si            1 RES     
    1160 O           13.9600    35.7890    11.8600 O             1 RES     
    1161 O           10.1560    17.0980     6.7790 O             1 RES     
    1162 O           31.4100    38.4720    11.0010 O             1 RES     
    1163 O           16.3110     9.1870    12.1930 O             1 RES     
    1164 O           49.7160     6.1130    11.9960 O             1 RES     
    1165 Si          46.2190     6.7850     6.0930 Si            1 RES     
    1166 OS          15.5620    23.4400    15.1250 OS            1 RES     
    1167 O           49.4500     8.6740    12.1600 O             1 RES     
    1168 Si          37.3660     3.2600    13.5820 Si            1 RES     
    1169 O            0.5590    24.8310     9.4250 O             1 RES     
    1170 OS          45.0770     3.5510    14.3830 OS            1 RES     
    1171 O           31.0190    12.8100     4.2520 O             1 RES     
    1172 O           42.5120    13.8110     3.3200 O             1 RES     
    1173 O           44.9820    35.0040     3.9540 O             1 RES     
    1174 Si          47.8900    40.3320     9.3920 Si            1 RES     
    1175 O           40.7650    19.2600    12.4870 O             1 RES     
    1176 O           49.3310    34.6780     8.0710 O             1 RES     
    1177 O            3.8620    16.9500     1.4150 O             1 RES     
    1178 O            6.5610     9.2230     3.8240 O             1 RES     
    1179 O           34.6850    12.5290    11.3780 O             1 RES     
    1180 Si          24.1050    39.4900    10.4800 Si            1 RES     
    1181 O           33.2570     0.2650     5.6660 O             1 RES     
    1182 O           22.7900     9.8900     7.1890 O             1 RES     
    1183 O           32.6950    35.6060     6.7950 O             1 RES     
    1184 O            5.9340    28.2390    12.2320 O             1 RES     
    1185 O           29.9530    15.9870     4.5410 O             1 RES     
    1186 Si          45.8740    13.8780     8.0790 Si            1 RES     
    1187 O           43.1760    24.2670    13.5710 O             1 RES     
    1188 O           34.1640    17.8210    10.9570 O             1 RES     
    1189 OS          18.3720    44.3820    14.6580 OS            1 RES     
    1190 Si          49.1160    20.2060    11.9690 Si            1 RES     
    1191 O           15.7400    10.8380     8.1330 O             1 RES     
    1192 Si           5.7440    46.3750     9.5310 Si            1 RES     
    1193 O           38.2740    24.3050    10.1730 O             1 RES     
    1194 O           43.1520     1.7600     6.8610 O             1 RES     
    1195 O           24.4440    16.8930     9.2070 O             1 RES     
    1196 Si          47.1230    44.1060     8.0430 Si            1 RES     
    1197 Si          32.3110    13.8020     4.0170 Si            1 RES     
    1198 O           27.0840     0.2090     8.7460 O             1 RES     
    1199 Si          42.5260    24.7440    12.2770 Si            1 RES     
    1200 O           48.5480     9.5350     6.5140 O             1 RES     
    1201 O           32.0830     5.2400     9.5810 O             1 RES     
    1202 Si          30.7770     6.9750     6.3810 Si            1 RES     
    1203 O           32.6560    17.3460     3.5770 O             1 RES     
    1204 Si          22.9830    46.9500     5.2330 Si            1 RES     
    1205 Si          10.7820    22.8880     7.5800 Si            1 RES     
    1206 O           37.9150    35.4680     2.4360 O             1 RES     
    1207 Si          19.3800    43.8850    13.4490 Si            1 RES     
    1208 Si          28.5620    10.2560     3.2980 Si            1 RES     
    1209 O           39.5970     8.4610     6.8880 O             1 RES     
    1210 O           28.0860    27.0470    12.8440 O             1 RES     
    1211 Si          12.4540     0.0520     9.2110 Si            1 RES     
    1212 O           46.1330    18.2330    11.5320 O             1 RES     
    1213 O           25.1730     9.3400     6.4250 O             1 RES     
    1214 OS          29.9060    14.1580    14.2690 OS            1 RES     
    1215 O           33.3330    44.0330    10.0310 O             1 RES     
    1216 O           41.8390    24.0760     5.2260 O             1 RES     
    1217 Si          37.3600    17.2670     7.9960 Si            1 RES     
    1218 Si          28.2610    28.7300     5.8670 Si            1 RES     
    1219 Si          30.2820     8.1480    12.0040 Si            1 RES     
    1220 O            3.8730     2.3210     7.7110 O             1 RES     
    1221 O            9.8770    49.4910    12.5530 O             1 RES     
    1222 O           14.0220    10.2330    11.5570 O             1 RES     
    1223 Si          22.5800    13.5060     8.3100 Si            1 RES     
    1224 O           49.1180     1.8730     9.3660 O             1 RES     
    1225 OS          10.3530    10.2990    14.1460 OS            1 RES     
    1226 Si          48.9490    14.0960     8.0240 Si            1 RES     
    1227 Si          46.8790     3.8960     6.8860 Si            1 RES     
    1228 O           35.4650    32.8620     6.0240 O             1 RES     
    1229 O           27.1510    37.9040     8.7450 O             1 RES     
    1230 Si          17.7620    23.1290     3.9820 Si            1 RES     
    1231 O           26.4320    17.0710     7.9550 O             1 RES     
    1232 O           23.7870    28.9780    13.9750 O             1 RES     
    1233 O           14.9030    22.0870     6.1110 O             1 RES     
    1234 O           16.5420    43.3890     8.1150 O             1 RES     
    1235 O            0.9190    22.9880     4.2150 O             1 RES     
    1236 Si          17.7200    13.2740     4.9340 Si            1 RES     
    1237 O            5.8700     8.7590    13.6460 O             1 RES     
    1238 O            5.1420    42.4580     8.9610 O             1 RES     
    1239 O           34.5830     8.8080     5.8920 O             1 RES     
    1240 O            0.6930    22.6550     1.5560 O             1 RES     
    1241 O           27.9120    44.4110     6.9660 O             1 RES     
    1242 Si          48.7060    12.1020    12.1750 Si            1 RES     
    1243 O           18.3710    13.4360    11.6530 O             1 RES     
    1244 O           40.0080     4.3710    11.6840 O             1 RES     
    1245 O           18.3840    14.6960     5.1130 O             1 RES     
    1246 O            5.2630    46.3220    11.0400 O             1 RES     
    1247 O           47.8390    21.1070     5.3680 O             1 RES     
    1248 Si          26.3970    15.0080    12.4620 Si            1 RES     
    1249 O           42.3170    26.3140     6.2530 O             1 RES     
    1250 O           25.3350     7.2390    10.7060 O             1 RES     
    1251 Si          31.4810    26.0880     8.1040 Si            1 RES     
    1252 O           49.2420    36.2610     5.9950 O             1 RES     
    1253 O           46.9280     2.4810     9.7930 O             1 RES     
    1254 O           36.5390    30.8970     7.4160 O             1 RES     
    1255 O           32.5680    21.7720     6.0700 O             1 RES     
    1256 O            1.2920    19.6120     8.2810 O             1 RES     
    1257 O           24.1240    12.2340     5.0580 O             1 RES     
    1258 Si           3.8400     3.8590     8.0030 Si            1 RES     
    1259 Si           2.7330     7.5870     9.8720 Si            1 RES     
    1260 Si           3.3400    38.4150    12.7900 Si            1 RES     
    1261 OS          17.5840    22.2940    14.2440 OS            1 RES     
    1262 O            7.5060    25.9090    11.4880 O             1 RES     
    1263 Si           8.4160    24.7610     7.8710 Si            1 RES     
    1264 O            1.2370    16.9980    13.2580 O             1 RES     
    1265 O           14.4070     2.7210     7.7180 O             1 RES     
    1266 O           25.0570    40.4720    11.2770 O             1 RES     
    1267 O           21.3450    31.9200     4.4470 O             1 RES     
    1268 Si          11.9350    39.3810     9.6200 Si            1 RES     
    1269 Si          12.9040     2.3990     7.3500 Si            1 RES     
    1270 O           34.6530     4.1580     4.0910 O             1 RES     
    1271 Si          20.6580    32.5660     5.7020 Si            1 RES     
    1272 O            9.9550     6.7670    10.5320 O             1 RES     
    1273 OS          18.4200    12.3350    14.1680 OS            1 RES     
    1274 O            6.3270    49.7210     5.6860 O             1 RES     
    1275 O           28.0230    23.1170     4.3880 O             1 RES     
    1276 Si          13.5940     1.3770     4.4050 Si            1 RES     
    1277 O           26.0460    12.7870     7.0520 O             1 RES     
    1278 Si           8.1330    39.0510    11.0320 Si            1 RES     
    1279 O           29.3400     0.0210     9.9030 O             1 RES     
    1280 O           20.6290    19.5290    12.8240 O             1 RES     
    1281 O           46.3110    16.6070     5.0460 O             1 RES     
    1282 O           35.1690     9.0720     8.2150 O             1 RES     
    1283 O           22.7640    36.2150    10.5800 O             1 RES     
    1284 O           21.7240     4.2780    11.3080 O             1 RES     
    1285 O           30.1630    19.2540     8.8420 O             1 RES     
    1286 O           10.6230    37.1910    13.7770 O             1 RES     
    1287 OS          39.8690    47.9840    14.0180 OS            1 RES     
    1288 Si          15.8320    17.6140    10.7090 Si            1 RES     
    1289 OS          22.3720    44.6030    15.7930 OS            1 RES     
    1290 O           49.4760    39.6740     5.8810 O             1 RES     
    1291 Si          39.0210    26.4570    13.3240 Si            1 RES     
    1292 O           17.5210    13.0590     3.3260 O             1 RES     
    1293 Si          13.2090    43.8680     5.5150 Si            1 RES     
    1294 OS          42.7060    40.5940    15.8250 OS            1 RES     
    1295 O           36.7560    28.3420     3.2740 O             1 RES     
    1296 O            0.1930     8.2110     7.5440 O             1 RES     
    1297 O           40.9160     8.9220     9.0310 O             1 RES     
    1298 OS           6.2970    11.2340    14.4080 OS            1 RES     
    1299 OS           7.4210    16.1880    15.7340 OS            1 RES     
    1300 Si          35.5870    48.5000    12.5270 Si            1 RES     
    1301 OS          46.7670    15.3050    15.7320 OS            1 RES     
    1302 O           32.5230    30.9610    12.8910 O             1 RES     
    1303 Si          26.3850    30.8540     4.7940 Si            1 RES     
    1304 Si          21.2500     0.8260    12.5180 Si            1 RES     
    1305 O            8.7310    35.5060    12.9560 O             1 RES     
    1306 O           21.1900    32.7920    13.7720 O             1 RES     
    1307 O           28.7420    44.1770    13.7490 O             1 RES     
    1308 O           27.9370    28.7950     7.4510 O             1 RES     
    1309 Si          32.3110     1.7010    11.9900 Si            1 RES     
    1310 O           20.8080     3.1280     6.0350 O             1 RES     
    1311 O           40.3960    19.4270    10.0400 O             1 RES     
    1312 O            8.1620    44.6540     3.9810 O             1 RES     
    1313 O           31.2400    47.1840     7.4300 O             1 RES     
    1314 O           23.7120     2.8520    10.9510 O             1 RES     
    1315 Si          21.9530    49.8670     5.1650 Si            1 RES     
    1316 O           28.4080    32.9060    12.4150 O             1 RES     
    1317 Si           2.6000    39.6720    10.1250 Si            1 RES     
    1318 Si          14.2540    20.1500     9.5970 Si            1 RES     
    1319 Si          33.7110    11.3420    11.5940 Si            1 RES     
    1320 O            2.3200    36.0940    10.2110 O             1 RES     
    1321 Si          33.6340    36.2480     7.9020 Si            1 RES     
    1322 Si          41.6060     1.6380    14.0500 Si            1 RES     
    1323 OS          38.0030    27.3230    14.0780 OS            1 RES     
    1324 O           10.7800     5.6640    12.5930 O             1 RES     
    1325 O           24.1490    43.2310    10.0890 O             1 RES     
    1326 O           43.1390    28.5830    10.8060 O             1 RES     
    1327 O           47.2410     5.9820    11.9870 O             1 RES     
    1328 Si          13.1380    10.7930    10.3950 Si            1 RES     
    1329 O           17.1380    33.0670    11.5390 O             1 RES     
    1330 Si          26.4910    29.8150    11.3490 Si            1 RES     
    1331 O           18.5480    12.0030     5.4170 O             1 RES     
    1332 O           31.5450    35.9710     4.5650 O             1 RES     
    1333 OS          44.7380    47.6000    14.9660 OS            1 RES     
    1334 Si           0.7740    47.0520     3.7350 Si            1 RES     
    1335 O            2.5520     7.5940     3.3250 O             1 RES     
    1336 Si          45.9920    32.1560     8.3110 Si            1 RES     
    1337 O           44.3380    46.0900     7.4270 O             1 RES     
    1338 Si          43.0130    29.5670     5.5960 Si            1 RES     
    1339 Si          43.2570     4.0900    10.1390 Si            1 RES     
    1340 O            6.7530    10.6080    12.1240 O             1 RES     
    1341 Si          27.4220     3.6870    10.1520 Si            1 RES     
    1342 OS          48.3360    17.2730    15.7300 OS            1 RES     
    1343 O           20.0630    39.6790     1.9350 O             1 RES     
    1344 O           17.8060     0.4220     4.2120 O             1 RES     
    1345 O           38.2740     6.0910    11.2360 O             1 RES     
    1346 O            4.5930    39.7580     5.1360 O             1 RES     
    1347 Si          28.9100     1.9180     6.1170 Si            1 RES     
    1348 O           11.7560     6.7500     4.0410 O             1 RES     
    1349 Si          24.7800    37.9610     5.9250 Si            1 RES     
    1350 O            9.0370     8.2650     8.6630 O             1 RES     
    1351 O           24.0770    12.4170     2.5300 O             1 RES     
    1352 O           37.7560    32.9340     2.4400 O             1 RES     
    1353 OS           4.5950    49.1400    14.5170 OS            1 RES     
    1354 O           24.6140    21.0140    11.8510 O             1 RES     
    1355 O           22.9150    25.2500     2.6540 O             1 RES     
    1356 O           13.2480    46.0200    12.6720 O             1 RES     
    1357 O           10.7970    47.4620     6.5500 O             1 RES     
    1358 Si          21.8370    41.1810     9.1520 Si            1 RES     
    1359 OS          41.2430    31.7290    14.0450 OS            1 RES     
    1360 O            9.1480     7.9230     3.5290 O             1 RES     
    1361 Si          40.5370     9.9940    10.0790 Si            1 RES     
    1362 O            5.7350     5.3190    11.2190 O             1 RES     
    1363 O            1.9570    38.9090     4.9630 O             1 RES     
    1364 O           39.2870    40.1540    10.0700 O             1 RES     
    1365 O            3.8470    17.0590     4.3490 O             1 RES     
    1366 OS           6.1870    38.7680    14.8600 OS            1 RES     
    1367 O           17.8950    41.6230     7.1700 O             1 RES     
    1368 Si          41.1600    32.1080     9.2800 Si            1 RES     
    1369 Si           7.5300    18.7090     4.5500 Si            1 RES     
    1370 O           39.2430    10.7900     9.7430 O             1 RES     
    1371 O           38.8950    14.7690     9.3090 O             1 RES     
    1372 O            6.8580    36.6660    13.7220 O             1 RES     
    1373 Si          32.5590    37.3940    10.4550 Si            1 RES     
    1374 O           36.1270    46.5280     6.8370 O             1 RES     
    1375 O           35.6710     7.5290     3.6010 O             1 RES     
    1376 Si          41.2410     5.5420     6.0670 Si            1 RES     
    1377 O           44.3530    47.2570     5.2990 O             1 RES     
    1378 O           21.0960    11.5510    11.3260 O             1 RES     
    1379 O           36.3140    47.7270     2.8030 O             1 RES     
    1380 Si           3.2690     7.8770     4.6890 Si            1 RES     
    1381 Si          44.3260    32.8360    10.9620 Si            1 RES     
    1382 O            5.9080    44.4830     4.7470 O             1 RES     
    1383 O           37.8670    48.5510     6.9750 O             1 RES     
    1384 Si          47.7890    29.7170     7.8140 Si            1 RES     
    1385 O           10.5360    45.8010    10.8160 O             1 RES     
    1386 O           30.0420     6.9110     3.1560 O             1 RES     
    1387 O           29.3280    25.3040     5.3200 O             1 RES     
    1388 O            2.6590     4.1220     4.7300 O             1 RES     
    1389 O            3.6920    39.0040     2.9030 O             1 RES     
    1390 O           46.0630     7.6860    10.0550 O             1 RES     
    1391 O           16.5760    13.7940    13.5320 O             1 RES     
    1392 Si          42.8980    39.7550    11.7930 Si            1 RES     
    1393 Si          44.6300    32.1160     5.5620 Si            1 RES     
    1394 Si           6.6730    28.6420     4.1830 Si            1 RES     
    1395 OS          13.7190    26.7830    15.1490 OS            1 RES     
    1396 O           35.2920    12.1580     4.2350 O             1 RES     
    1397 O           23.1660    15.8090     4.5290 O             1 RES     
    1398 O           36.2370    33.6100    13.1820 O             1 RES     
    1399 O            7.7920    19.5000     3.2450 O             1 RES     
    1400 Si          39.0220    39.1650     3.7950 Si            1 RES     
    1401 O           38.6900    39.3440     5.2950 O             1 RES     
    1402 Si          20.5840    46.4850     9.0350 Si            1 RES     
    1403 Si          26.1220     6.8770     3.7100 Si            1 RES     
    1404 O           20.6050    27.2480    10.9330 O             1 RES     
    1405 O           42.4750    43.0040     4.0240 O             1 RES     
    1406 O           48.6060    16.6050     3.7510 O             1 RES     
    1407 O           31.7590    28.7610    13.1040 O             1 RES     
    1408 O           17.4440    10.2380     6.5740 O             1 RES     
    1409 O           29.8050     9.3610     3.5760 O             1 RES     
    1410 O           10.0160     7.8800    15.3240 O             1 RES     
    1411 O           24.9300     2.2730     5.9240 O             1 RES     
    1412 Si          31.2540    22.1560    13.7340 Si            1 RES     
    1413 O           45.0480    49.2860     3.9300 O             1 RES     
    1414 O           48.9510    41.4400     9.0160 O             1 RES     
    1415 Si          23.2200    44.8880     8.7860 Si            1 RES     
    1416 O           46.5110    30.6330     8.0910 O             1 RES     
    1417 Si           2.9310    20.3950    11.4460 Si            1 RES     
    1418 O           37.0440    36.4570     7.0990 O             1 RES     
    1419 O           23.2340    45.3400    13.3730 O             1 RES     
    1420 Si           4.5790    17.8720    12.0130 Si            1 RES     
    1421 O           31.9420    31.6430     9.0490 O             1 RES     
    1422 Si          20.8980    21.6300     7.9010 Si            1 RES     
    1423 O           20.6810    24.5750    10.5290 O             1 RES     
    1424 Si          49.8680    39.7510    11.6200 Si            1 RES     
    1425 O           46.8890    41.2540    10.2250 O             1 RES     
    1426 OS          27.9750    42.7650    15.5640 OS            1 RES     
    1427 Si          41.9310    29.5470    10.6970 Si            1 RES     
    1428 O            0.9740     5.9620     6.5700 O             1 RES     
    1429 O           15.6560    34.3010     8.0550 O             1 RES     
    1430 O           11.1760    49.7570    10.1540 O             1 RES     
    1431 O           16.9850    20.3870     6.9930 O             1 RES     
    1432 O           21.1540    22.3680     9.2110 O             1 RES     
    1433 Si           7.0370     4.9610    12.2210 Si            1 RES     
    1434 O            2.4470     0.3440    10.6000 O             1 RES     
    1435 Si          34.4530    45.6960    12.7250 Si            1 RES     
    1436 O           35.4760     0.9680    10.6270 O             1 RES     
    1437 OS          36.0920     3.5090    14.4360 OS            1 RES     
    1438 O           38.3100    16.9160     6.8450 O             1 RES     
    1439 Si          49.5990    10.9130     3.3680 Si            1 RES     
    1440 O           30.3820    40.4390    11.8390 O             1 RES     
    1441 O            2.3780    48.0490     9.1800 O             1 RES     
    1442 O           11.9200    35.5030     8.8340 O             1 RES     
    1443 Si          11.6610    42.2820    11.3350 Si            1 RES     
    1444 O           16.2840     2.2140     9.1100 O             1 RES     
    1445 O           28.8800    23.1380     6.8910 O             1 RES     
    1446 Si          15.1530     8.2330     3.0780 Si            1 RES     
    1447 O           37.6080    16.6840     3.1480 O             1 RES     
    1448 O           16.5280    23.4710     4.8550 O             1 RES     
    1449 O            2.0400    19.3430    10.6480 O             1 RES     
    1450 O           26.6770    32.2300     8.4070 O             1 RES     
    1451 O           34.8490    45.1810     8.5100 O             1 RES     
    1452 O           44.2890    39.3050    11.3820 O             1 RES     
    1453 O           33.8490    20.4930    11.2560 O             1 RES     
    1454 O           22.5550    39.5800     2.1820 O             1 RES     
    1455 O           42.6690    41.1440    11.1220 O             1 RES     
    1456 O            1.5370    26.3480    11.4820 O             1 RES     
    1457 O           31.1460    46.0030     2.2060 O             1 RES     
    1458 Si          28.9500    49.9680    13.8490 Si            1 RES     
    1459 O            6.7110    37.0250     8.4600 O             1 RES     
    1460 O           40.4520    26.0420     4.4160 O             1 RES     
    1461 Si           1.4310    29.3570     4.3530 Si            1 RES     
    1462 Si          29.4410    44.1440     6.3630 Si            1 RES     
    1463 Si          34.5620    37.2000    12.6940 Si            1 RES     
    1464 O           15.4150    17.9690     3.7480 O             1 RES     
    1465 OS          20.4180    47.7500    16.1300 OS            1 RES     
    1466 O           48.6890    29.9460     9.1440 O             1 RES     
    1467 Si          19.7040    35.1190     4.3010 Si            1 RES     
    1468 O           24.8300    49.2830    13.5330 O             1 RES     
    1469 Si           9.2350    40.2780     8.5050 Si            1 RES     
    1470 O           10.1700    22.6780     3.4770 O             1 RES     
    1471 O           28.0260    48.4980     3.9550 O             1 RES     
    1472 Si          10.2590     7.0960     4.3300 Si            1 RES     
    1473 Si          10.7680     0.3680     4.1590 Si            1 RES     
    1474 O            7.4330    33.4430    10.3300 O             1 RES     
    1475 O           37.5930    12.8270     9.0240 O             1 RES     
    1476 O           39.2760    49.7930     5.2960 O             1 RES     
    1477 Si          41.8360    40.0350    14.6450 Si            1 RES     
    1478 Si          40.4220    22.1860     8.0240 Si            1 RES     
    1479 O           41.5440    30.2860     5.8490 O             1 RES     
    1480 Si          15.1180    23.4980     5.5180 Si            1 RES     
    1481 OS          31.2930    29.1530    15.5050 OS            1 RES     
    1482 O           37.2250    44.6220     8.1630 O             1 RES     
    1483 Si          37.4620    29.9450     6.6480 Si            1 RES     
    1484 O            2.4090    45.0060    14.6690 O             1 RES     
    1485 O           28.2940     2.3970     9.6980 O             1 RES     
    1486 Si          49.9060    16.3460     2.8790 Si            1 RES     
    1487 Si          49.7400    49.0190    13.2010 Si            1 RES     
    1488 O            2.1370    21.5170    12.1680 O             1 RES     
    1489 O            2.7220    39.5190    13.6440 O             1 RES     
    1490 Si          23.4490    48.7390    13.0610 Si            1 RES     
    1491 O           43.6060    34.1830    10.4770 O             1 RES     
    1492 Si          40.0440    22.8680     2.7750 Si            1 RES     
    1493 Si          30.3540    49.4740    11.0060 Si            1 RES     
    1494 O           10.4660    28.0500     3.3230 O             1 RES     
    1495 O           43.5030    29.4090     4.0760 O             1 RES     
    1496 O           12.3350    34.3870    10.9070 O             1 RES     
    1497 Si          30.2830    35.4870    10.0540 Si            1 RES     
    1498 O            1.5180     7.7760    10.8100 O             1 RES     
    1499 O           13.9350    48.6380    12.4890 O             1 RES     
    1500 O           11.8470    15.4370     5.8870 O             1 RES     
    1501 Si          36.3330    41.9210    10.7280 Si            1 RES     
    1502 Si          35.4250    49.3560     9.7630 Si            1 RES     
    1503 O           20.1260    10.3950     6.6900 O             1 RES     
    1504 O           42.1540     3.4420    10.9540 O             1 RES     
    1505 O           48.7590     4.2680    13.4230 O             1 RES     
    1506 O           34.3070    45.7400    11.1810 O             1 RES     
    1507 Si          28.9580    19.7090    12.6810 Si            1 RES     
    1508 Si           6.1900     2.5090    13.7400 Si            1 RES     
    1509 O           13.5450     2.5430     3.3690 O             1 RES     
    1510 Si          10.8420    26.5980     2.8430 Si            1 RES     
    1511 Si          20.2770    23.7320     5.6520 Si            1 RES     
    1512 Si          14.4350    38.4700     8.2500 Si            1 RES     
    1513 O           14.3810    38.4590    11.4540 O             1 RES     
    1514 Si          40.9010     7.9910    12.3730 Si            1 RES     
    1515 Si          19.8480     9.1710    14.5010 Si            1 RES     
    1516 Si           4.0140    12.4090     2.8490 Si            1 RES     
    1517 O           46.4900     5.3760     6.6270 O             1 RES     
    1518 Si          23.8000    24.7180    13.9410 Si            1 RES     
    1519 O           43.7220     5.6280     2.8890 O             1 RES     
    1520 O            9.7740     8.0690    12.8280 O             1 RES     
    1521 O           11.2780    22.8880     6.1010 O             1 RES     
    1522 Si          34.9060    19.1140     7.6960 Si            1 RES     
    1523 Si          20.9400    21.1020    13.9370 Si            1 RES     
    1524 O           14.3030     7.0030     3.5270 O             1 RES     
    1525 O            7.6360     4.7540     3.4860 O             1 RES     
    1526 O            1.1770    36.5940     7.9670 O             1 RES     
    1527 O           11.1080    39.5610    13.4330 O             1 RES     
    1528 Si          41.8900    36.6090     5.6030 Si            1 RES     
    1529 Si           8.3270    24.6850    10.8860 Si            1 RES     
    1530 O           46.1650    30.2530    12.9010 O             1 RES     
    1531 Si          48.5580    37.0190     4.7550 Si            1 RES     
    1532 O           18.0280    24.1480     2.7820 O             1 RES     
    1533 O           38.2120    40.3700     3.1680 O             1 RES     
    1534 O           13.2290    18.9340     4.1960 O             1 RES     
    1535 Si          46.3700    21.4260    12.7990 Si            1 RES     
    1536 Si           2.5850    16.6810    13.9840 Si            1 RES     
    1537 O            1.5240    42.1600     5.3490 O             1 RES     
    1538 O           34.2080    41.4020     2.9950 O             1 RES     
    1539 O            9.9340    30.2440     7.3410 O             1 RES     
    1540 O            2.0630    15.5610     2.9380 O             1 RES     
    1541 Si          27.0240    28.3330     8.6310 Si            1 RES     
    1542 O           38.5380    40.3870    12.5310 O             1 RES     
    1543 O           35.8430     5.7330    11.5410 O             1 RES     
    1544 O           27.5350     2.5990     5.9240 O             1 RES     
    1545 Si          43.6470     6.3850     4.3100 Si            1 RES     
    1546 O           42.4490    45.0810     5.6010 O             1 RES     
    1547 OS          32.9010    10.6860    15.7000 OS            1 RES     
    1548 O           38.6840    34.5900     7.1850 O             1 RES     
    1549 Si          43.7680    26.7680     6.7440 Si            1 RES     
    1550 OS          20.0360    34.2170    15.6750 OS            1 RES     
    1551 Si          42.4550    31.3330    13.0540 Si            1 RES     
    1552 O            4.9090    17.5310    10.4690 O             1 RES     
    1553 Si          31.4390    21.9590     5.0050 Si            1 RES     
    1554 Si          21.4930    10.7350     7.5580 Si            1 RES     
    1555 O           13.9710     6.4620     5.8890 O             1 RES     
    1556 O           33.0330    13.1450     8.0570 O             1 RES     
    1557 Si          34.9240    33.4730     4.7240 Si            1 RES     
    1558 O           17.3600    41.1060    13.5630 O             1 RES     
    1559 O           26.3210    32.7020    13.5690 O             1 RES     
    1560 Si          31.5440    41.4570    12.4750 Si            1 RES     
    1561 O           25.4890    13.7300    12.0520 O             1 RES     
    1562 Si          41.1940    25.4280     5.6740 Si            1 RES     
    1563 OS          38.8210     8.9780    15.0080 OS            1 RES     
    1564 Si          25.0190    33.6200     4.5810 Si            1 RES     
    1565 OS          23.1240    10.3070    15.9810 OS            1 RES     
    1566 O           25.8520    37.3180     4.9610 O             1 RES     
    1567 O           26.2680    22.5560     2.5550 O             1 RES     
    1568 O           33.7020     3.5210     8.8710 O             1 RES     
    1569 Si          49.5320    36.2110     7.5480 Si            1 RES     
    1570 O            7.9020    12.8950     5.8120 O             1 RES     
    1571 Si          32.6620    21.5750    11.0900 Si            1 RES     
    1572 Si          41.8410    37.7970     9.8630 Si            1 RES     
    1573 O           24.8970    38.6820     9.4090 O             1 RES     
    1574 O           19.4320    30.9940     8.6450 O             1 RES     
    1575 O           23.0340     6.4600    10.7360 O             1 RES     
    1576 Si           6.1230    21.0220     6.0700 Si            1 RES     
    1577 O           26.2580     7.8970     4.8800 O             1 RES     
    1578 O           24.7020    27.8820     4.0000 O             1 RES     
    1579 O            6.7870    43.4910    11.0880 O             1 RES     
    1580 O            4.7200    26.2960     6.7230 O             1 RES     
    1581 O           37.7030    28.5370     7.3720 O             1 RES     
    1582 O           34.9560    33.9470    11.0150 O             1 RES     
    1583 O           14.4000    21.2030    10.7780 O             1 RES     
    1584 O           17.2170    24.9120    13.6390 O             1 RES     
    1585 O            4.4340    46.6510     3.6400 O             1 RES     
    1586 O           30.7400    41.4030     3.7310 O             1 RES     
    1587 O            4.3840    13.3880    11.0640 O             1 RES     
    1588 O           22.1030    11.6210    13.7130 O             1 RES     
    1589 Si          31.4340    47.1230     9.0250 Si            1 RES     
    1590 O           36.8030    42.6740    12.0850 O             1 RES     
    1591 Si          22.1270    35.1590     9.6950 Si            1 RES     
    1592 O            3.8970     7.1550    14.0880 O             1 RES     
    1593 Si           4.3300    41.3140     8.1820 Si            1 RES     
    1594 Si          10.1830    35.9490    12.9900 Si            1 RES     
    1595 O           40.7490    28.5730    10.2950 O             1 RES     
    1596 O           32.6930    40.5850     4.9870 O             1 RES     
    1597 O           31.9860     3.9110     4.1460 O             1 RES     
    1598 O           45.5510     9.8530     8.1410 O             1 RES     
    1599 Si          30.2600    26.5190     5.2240 Si            1 RES     
    1600 Si          30.8330    16.8930    12.4020 Si            1 RES     
    1601 O           33.2690     3.5440     1.8200 O             1 RES     
    1602 Si          33.1600    28.3150     9.5480 Si            1 RES     
    1603 O           44.0770    47.9320    12.2840 O             1 RES     
    1604 O           47.5480    38.0060     5.6180 O             1 RES     
    1605 Si          37.6450    27.2860     8.3550 Si            1 RES     
    1606 O           27.5640    24.5850    13.4620 O             1 RES     
    1607 Si          17.1250    18.3300    13.4100 Si            1 RES     
    1608 O            7.1940    24.1080     3.5390 O             1 RES     
    1609 Si          16.4750     0.4530     5.0370 Si            1 RES     
    1610 O           19.0150    33.9640    12.9490 O             1 RES     
    1611 O           48.2660    28.9640    13.3060 O             1 RES     
    1612 Si          13.7360    46.8480     4.7960 Si            1 RES     
    1613 O           45.7160     3.1720     7.7260 O             1 RES     
    1614 O           47.2460    43.8840     6.4930 O             1 RES     
    1615 Si          22.0170    45.0380    14.2880 Si            1 RES     
    1616 O           33.8920     7.0090    12.1530 O             1 RES     
    1617 Si          39.0750     5.0900     3.8950 Si            1 RES     
    1618 O            7.5480    21.7370     2.2120 O             1 RES     
    1619 Si           8.7090    29.5450    12.8640 Si            1 RES     
    1620 O           23.3460    33.7330    14.3400 O             1 RES     
    1621 O           38.7150    11.9880     2.8450 O             1 RES     
    1622 O           23.8410    10.0350    13.5690 O             1 RES     
    1623 O           17.3960    45.5620     7.7220 O             1 RES     
    1624 Si          25.4570     0.0150     8.9280 Si            1 RES     
    1625 O           26.8410    31.3830    11.3970 O             1 RES     
    1626 Si           6.6870    28.7520     8.6050 Si            1 RES     
    1627 OS          43.8080    36.4830    16.0540 OS            1 RES     
    1628 O           22.9350     8.4130     3.4420 O             1 RES     
    1629 O           39.6580    23.4910     8.2180 O             1 RES     
    1630 O           40.5220    13.4140     7.5850 O             1 RES     
    1631 O           12.5910    40.7200     5.2870 O             1 RES     
    1632 O           29.9960    21.1650    13.4540 O             1 RES     
    1633 Si          41.0860    12.8460     6.2010 Si            1 RES     
    1634 Si          16.5360    42.3980     6.8450 Si            1 RES     
    1635 O            5.2850    29.5070     8.5800 O             1 RES     
    1636 Si          45.8050    26.2980     2.8180 Si            1 RES     
    1637 O           13.0470    46.5060     7.9250 O             1 RES     
    1638 O            0.7180    49.8240     8.9760 O             1 RES     
    1639 OS          36.5360    15.8240    14.3420 OS            1 RES     
    1640 O           38.6230    13.9870    13.4050 O             1 RES     
    1641 Si          11.1980    35.2150    10.2120 Si            1 RES     
    1642 O           16.1250    27.2630     7.1250 O             1 RES     
    1643 O           42.0090     8.9310     6.7160 O             1 RES     
    1644 O           29.4600     7.4260     7.0500 O             1 RES     
    1645 Si          24.4940    16.1220     5.1530 Si            1 RES     
    1646 O           14.2950    24.3120     4.4240 O             1 RES     
    1647 Si          38.8680    40.4150    14.1390 Si            1 RES     
    1648 O           29.1570    32.0700     6.3030 O             1 RES     
    1649 O           16.2070    42.0650     2.8460 O             1 RES     
    1650 OS          19.4590    10.4200    15.3960 OS            1 RES     
    1651 Si           9.1930     2.1070     6.1930 Si            1 RES     
    1652 O           22.3780    10.9030     3.1270 O             1 RES     
    1653 O           29.5450    27.8690     5.5900 O             1 RES     
    1654 Si           9.7130    35.8030     6.0890 Si            1 RES     
    1655 O           16.2530    39.6080     2.5560 O             1 RES     
    1656 O           36.1380    34.2730     4.0100 O             1 RES     
    1657 O           41.4980     4.0980     6.5750 O             1 RES     
    1658 O           44.7810    41.7280     3.7870 O             1 RES     
    1659 Si          21.5530    37.3940     5.0980 Si            1 RES     
    1660 O           15.2540    46.7190     5.0130 O             1 RES     
    1661 Si          48.3050     8.8110     5.0710 Si            1 RES     
    1662 Si          19.3380    36.4260     9.9850 Si            1 RES     
    1663 O            6.0910    41.7390    14.4270 O             1 RES     
    1664 O           47.7060     8.7760     8.5610 O             1 RES     
    1665 O           16.0610     6.3310     7.6540 O             1 RES     
    1666 O           40.2300    36.4090    13.8110 O             1 RES     
    1667 O           48.3560    10.4680     2.3570 O             1 RES     
    1668 Si           7.5970    15.8860     3.3550 Si            1 RES     
    1669 Si          33.3320    42.4600    10.1280 Si            1 RES     
    1670 Si          46.0100    36.0040     3.3990 Si            1 RES     
    1671 O           46.9380    40.5590     4.9240 O             1 RES     
    1672 Si          14.4050    18.2450     4.9420 Si            1 RES     
    1673 O           46.1040    11.4080     5.6420 O             1 RES     
    1674 O           27.3830     8.8200     6.7370 O             1 RES     
    1675 O           31.8700    15.0560     3.2500 O             1 RES     
    1676 Si          15.9070    10.0890     6.7220 Si            1 RES     
    1677 O           10.8390    15.5770    10.8400 O             1 RES     
    1678 Si           3.8790    23.8550     9.3030 Si            1 RES     
    1679 O           10.9570    21.5610     8.4690 O             1 RES     
    1680 Si           7.0870    27.4220    11.3940 Si            1 RES     
    1681 O           42.1170    20.9600    11.0440 O             1 RES     
    1682 O           14.6650    28.9330    13.6520 O             1 RES     
    1683 Si          15.6640    29.9960    13.2650 Si            1 RES     
    1684 O           41.2090     6.6220     7.2350 O             1 RES     
    1685 Si           3.2300    16.7320     5.8630 Si            1 RES     
    1686 O           25.0490    41.8660     6.4780 O             1 RES     
    1687 Si           1.2730    44.7730    10.5840 Si            1 RES     
    1688 O            2.6120    46.4420     7.0790 O             1 RES     
    1689 O           13.6390    49.8840    10.2120 O             1 RES     
    1690 O           30.6700    34.1810     9.2810 O             1 RES     
    1691 OS           3.4830     3.6420    14.6700 OS            1 RES     
    1692 Si          41.1270    42.6480     8.1450 Si            1 RES     
    1693 O           40.0150     6.7220    12.7820 O             1 RES     
    1694 O           46.5220    14.8410    13.6800 O             1 RES     
    1695 O           19.5030    37.4470    11.1780 O             1 RES     
    1696 O           40.1420    18.5980     7.4890 O             1 RES     
    1697 O            6.4810    45.2430    12.8770 O             1 RES     
    1698 O            3.6000    44.9390     4.7370 O             1 RES     
    1699 O           40.1310    32.9500    10.1810 O             1 RES     
    1700 O           44.1860    49.7900    14.2140 O             1 RES     
    1701 Si          26.6890    16.7210     3.0580 Si            1 RES     
    1702 O           23.2980    16.4810    11.5780 O             1 RES     
    1703 O            7.4210    33.3580     4.5400 O             1 RES     
    1704 Si          44.8280    48.4210    13.6520 Si            1 RES     
    1705 O           47.3600    32.4420     2.6270 O             1 RES     
    1706 O           38.3920    45.2230     3.4960 O             1 RES     
    1707 O            2.3880    18.0540     6.4230 O             1 RES     
    1708 OS          22.7450    30.9570    14.5870 OS            1 RES     
    1709 O           33.4470    13.1420     3.1830 O             1 RES     
    1710 O           24.0410    23.1650    13.5520 O             1 RES     
    1711 OS          46.7590    44.2960    14.1190 OS            1 RES     
    1712 O           36.7380    34.8560     9.1230 O             1 RES     
    1713 O           43.6660    35.3340     8.4330 O             1 RES     
    1714 O           39.8860     2.2040    10.2160 O             1 RES     
    1715 O           49.6020    12.7850    13.2680 O             1 RES     
    1716 O           11.1720    18.9820     5.3790 O             1 RES     
    1717 O           14.0480     9.3350     3.0620 O             1 RES     
    1718 O           35.8400    18.1980    13.9900 O             1 RES     
    1719 O           45.4570    30.3800     2.5570 O             1 RES     
    1720 O           34.2480    35.0790     8.7640 O             1 RES     
    1721 OS           3.5890    41.3540    15.1300 OS            1 RES     
    1722 O           14.3800    26.3200    10.8220 O             1 RES     
    1723 OS          48.5540    26.5690    14.4960 OS            1 RES     
    1724 Si           5.3480    49.4170    12.7330 Si            1 RES     
    1725 O           34.2900     4.8140    13.7120 O             1 RES     
    1726 O           41.5300    11.3990     6.3670 O             1 RES     
    1727 O           46.0850    35.4200     1.9540 O             1 RES     
    1728 Si          11.4050    22.6560     4.4670 Si            1 RES     
    1729 OS          38.6380    32.5650    14.3420 OS            1 RES     
    1730 OS          40.7220    14.0150    14.4760 OS            1 RES     
    1731 Si           5.4440    46.3220    12.6150 Si            1 RES     
    1732 O           47.9650     3.8760     8.0230 O             1 RES     
    1733 O           22.6100    24.2770     9.1200 O             1 RES     
    1734 O            8.7410     3.2920     5.2770 O             1 RES     
    1735 O           43.1120    13.3500    10.8740 O             1 RES     
    1736 O           40.3440    48.4660     7.4730 O             1 RES     
    1737 O            3.4810     4.3130    11.9250 O             1 RES     
    1738 O           15.4450    37.0720    13.3770 O             1 RES     
    1739 O           30.5520    32.6320    11.0970 O             1 RES     
    1740 O           14.9040    13.0700     7.7000 O             1 RES     
    1741 Si          43.4640    34.5120     4.1050 Si            1 RES     
    1742 O           37.2750    41.3190     6.3480 O             1 RES     
    1743 O           16.5790     8.1120     3.7590 O             1 RES     
    1744 O           44.9030    17.5790     9.8250 O             1 RES     
    1745 O           42.4170    23.6620    11.1840 O             1 RES     
    1746 Si          11.8210    19.6120     4.0960 Si            1 RES     
    1747 O            4.2290     4.2180     9.5200 O             1 RES     
    1748 O           11.9240     3.5670     7.9060 O             1 RES     
    1749 Si          23.2640    28.3340     4.5650 Si            1 RES     
    1750 Si          10.6550    15.6260     6.9070 Si            1 RES     
    1751 Si          16.6240    47.4700     4.8540 Si            1 RES     
    1752 O           42.4230    43.5150    11.6360 O             1 RES     
    1753 O           44.6300    13.0840     4.7050 O             1 RES     
    1754 O           24.8870    23.7760     8.7800 O             1 RES     
    1755 Si          44.1340    14.4970    10.5390 Si            1 RES     
    1756 O            1.7890    11.3740     9.7400 O             1 RES     
    1757 Si          36.3550    48.1240     7.1680 Si            1 RES     
    1758 O           10.2310    49.0210     4.5630 O             1 RES     
    1759 O           28.3610    24.1750     9.0730 O             1 RES     
    1760 OS           8.0270    42.6550    15.9740 OS            1 RES     
    1761 O           20.6590    43.6390     4.2780 O             1 RES     
    1762 Si          19.3750    41.1540     7.3020 Si            1 RES     
    1763 O           30.9560    11.5940     8.6360 O             1 RES     
    1764 O           18.8340     9.1030    13.2000 O             1 RES     
    1765 O           18.5960    17.9340    13.0090 O             1 RES     
    1766 O           46.4730     1.5150     3.5410 O             1 RES     
    1767 Si          18.1270    13.5640    13.2330 Si            1 RES     
    1768 O           12.2390    25.8070     3.0760 O             1 RES     
    1769 O            7.1170    49.6020     8.2970 O             1 RES     
    1770 OS          11.0990    15.4880    15.8520 OS            1 RES     
    1771 Si          47.6450    44.0410    12.8520 Si            1 RES     
    1772 O            7.2630    40.2660     5.4760 O             1 RES     
    1773 Si           5.9150    39.6130     6.0160 Si            1 RES     
    1774 O            3.6420    48.2090     1.7190 O             1 RES     
    1775 Si           9.3260    30.2780     8.7720 Si            1 RES     
    1776 O           21.8550    12.2470     7.6560 O             1 RES     
    1777 Si          32.0220    45.5090     3.4310 Si            1 RES     
    1778 Si          26.3280    36.2830     3.8650 Si            1 RES     
    1779 Si          29.2960    49.2110     4.6370 Si            1 RES     
    1780 Si           9.8470    49.8200    11.0250 Si            1 RES     
    1781 Si           9.5920     8.9400    14.1330 Si            1 RES     
    1782 O           23.2350    37.5940     5.5630 O             1 RES     
    1783 O            4.4610     4.4630     6.6550 O             1 RES     
    1784 O           37.6840     4.5540     4.2990 O             1 RES     
    1785 O            8.1540    43.7040     6.2390 O             1 RES     
    1786 O           16.5850     3.8740     7.1990 O             1 RES     
    1787 Si          43.4070    14.0150     4.5790 Si            1 RES     
    1788 O           29.2980    38.8270     7.6790 O             1 RES     
    1789 O           29.3870    21.7350     9.2020 O             1 RES     
    1790 Si          19.1950    49.8120     3.6240 Si            1 RES     
    1791 O           38.6720    38.0910    11.0390 O             1 RES     
    1792 Si          37.7770    35.5230     8.0530 Si            1 RES     
    1793 O            0.8420    23.7000    11.6950 O             1 RES     
    1794 Si          45.3090    46.5390     8.6930 Si            1 RES     
    1795 O           40.1670    32.8790     5.9980 O             1 RES     
    1796 O           49.4920    12.2080     4.3130 O             1 RES     
    1797 Si          43.2470    18.1450     6.8110 Si            1 RES     
    1798 O            1.2610    45.9670     4.7330 O             1 RES     
    1799 O           20.5560     6.5140    11.2540 O             1 RES     
    1800 Si          46.4700    21.9070     5.5860 Si            1 RES     
    1801 O           33.7270     4.7470    11.2180 O             1 RES     
    1802 O           48.7680    39.6940    10.5490 O             1 RES     
    1803 Si           3.4020     1.0840     6.7640 Si            1 RES     
    1804 O           21.3330     1.8710    11.3530 O             1 RES     
    1805 O           35.5060    11.1090     6.4490 O             1 RES     
    1806 O           26.7580     4.1720     8.6430 O             1 RES     
    1807 O           44.5140    28.1680    12.7980 O             1 RES     
    1808 Si           5.8150    23.1590    13.7230 Si            1 RES     
    1809 O           37.1250     4.6340     6.7400 O             1 RES     
    1810 Si          42.0090     8.7670     3.2600 Si            1 RES     
    1811 Si          46.1000    12.5440     4.5270 Si            1 RES     
    1812 O           49.5030    40.8540    12.6370 O             1 RES     
    1813 O           11.7300    11.3630    10.8470 O             1 RES     
    1814 Si          10.5060     3.9990     8.3070 Si            1 RES     
    1815 O           26.4340    42.8610    11.3620 O             1 RES     
    1816 Si          45.5280    18.4290    12.9920 Si            1 RES     
    1817 O           10.2690    20.2770    12.7150 O             1 RES     
    1818 O            4.0880     6.5780     5.0410 O             1 RES     
    1819 Si           4.7960    45.1350     3.8250 Si            1 RES     
    1820 Si          17.2500    36.7620     5.3500 Si            1 RES     
    1821 O           22.6580    35.0170     8.1920 O             1 RES     
    1822 O            4.7760    11.3850     3.7570 O             1 RES     
    1823 Si           2.1730    30.1660    10.6390 Si            1 RES     
    1824 O           29.6660     9.5910    12.2180 O             1 RES     
    1825 O            3.1690    11.5260     1.8630 O             1 RES     
    1826 Si           1.5830    19.4170     6.7290 Si            1 RES     
    1827 Si           4.1910    30.4610     4.9740 Si            1 RES     
    1828 O           18.7420    19.2920     3.6040 O             1 RES     
    1829 O           29.6860    44.8840    11.6080 O             1 RES     
    1830 Si          21.1900    42.2330     4.8640 Si            1 RES     
    1831 O           30.7800    20.5740     4.9990 O             1 RES     
    1832 O           19.1700    19.3410     6.1340 O             1 RES     
    1833 Si          21.9210     5.8130    11.6850 Si            1 RES     
    1834 O           30.8090    16.9810     1.4340 O             1 RES     
    1835 O           19.2280    34.6030     2.8800 O             1 RES     
    1836 Si           4.1090     5.0000     5.1770 Si            1 RES     
    1837 O            6.3600    18.8940     8.8740 O             1 RES     
    1838 O            6.2940     0.6990     3.4020 O             1 RES     
    1839 O           15.1280     3.2530    11.2180 O             1 RES     
    1840 Si          24.5940    16.9940    10.8350 Si            1 RES     
    1841 Si          12.2190    47.6710     7.2280 Si            1 RES     
    1842 Si          49.2660    27.9520    14.1410 Si            1 RES     
    1843 O           37.6340    43.1750     4.6860 O             1 RES     
    1844 O           40.8040     9.0420    13.7160 O             1 RES     
    1845 Si          27.3070    45.2360     8.2250 Si            1 RES     
    1846 O           33.9980    22.9060     7.6760 O             1 RES     
    1847 O            7.2550    30.0260    13.2260 O             1 RES     
    1848 OS          45.0770    29.4240    15.0810 OS            1 RES     
    1849 O           45.1190    37.2770     3.0810 O             1 RES     
    1850 O            6.8140    47.4990     9.5180 O             1 RES     
    1851 O           14.2680    43.1000     4.5660 O             1 RES     
    1852 O           41.9410    38.7310    11.1050 O             1 RES     
    1853 O            5.3760    40.2880     7.4140 O             1 RES     
    1854 O           40.1690    43.8500     4.6990 O             1 RES     
    1855 O           27.7100    40.7150     6.5120 O             1 RES     
    1856 O           40.9140    41.0570     8.2180 O             1 RES     
    1857 OS          34.1110    39.3100    14.9850 OS            1 RES     
    1858 O           30.0460    40.2740     5.7160 O             1 RES     
    1859 O           39.6660    27.1110    12.0460 O             1 RES     
    1860 O           17.3190    47.0070     3.5200 O             1 RES     
    1861 Si          32.9580     4.0070    10.1090 Si            1 RES     
    1862 OS          10.9230     3.7840    14.3840 OS            1 RES     
    1863 Si          34.8320    34.0840    12.5900 Si            1 RES     
    1864 O            7.6280    43.2180    13.5850 O             1 RES     
    1865 Si          47.7210    26.6370     7.6180 Si            1 RES     
    1866 O           30.9160    26.5840     3.7620 O             1 RES     
    1867 O           23.9220    42.3280    12.3240 O             1 RES     
    1868 O           25.8880    40.5100    13.6960 O             1 RES     
    1869 O           36.9150    15.8830     8.6820 O             1 RES     
    1870 OS           6.4700    14.0980    14.5600 OS            1 RES     
    1871 O           21.1230    47.8380     9.4230 O             1 RES     
    1872 O           44.2260     1.4090     2.5910 O             1 RES     
    1873 O           21.3940    24.2170     4.6260 O             1 RES     
    1874 O           38.1040    25.3190    12.6240 O             1 RES     
    1875 Si          32.5640    11.8050     8.6730 Si            1 RES     
    1876 O           33.7820    18.0900     7.4940 O             1 RES     
    1877 O            9.2800    39.5730    11.9060 O             1 RES     
    1878 O            1.9720     1.2120     6.1930 O             1 RES     
    1879 O           46.1200    47.9080     8.9550 O             1 RES     
    1880 O           15.0400    45.0910     8.8960 O             1 RES     
    1881 O           40.8230    25.8370     1.9520 O             1 RES     
    1882 O            5.1570    33.7200     3.2020 O             1 RES     
    1883 Si          43.0790    47.3120    11.1950 Si            1 RES     
    1884 OS          38.3240     2.4550    14.5480 OS            1 RES     
    1885 O            9.7870    41.1050     4.7360 O             1 RES     
    1886 O            6.1870    10.7460     5.5900 O             1 RES     
    1887 O           34.0590    49.7060     8.3830 O             1 RES     
    1888 O           46.9490    42.9200     4.2110 O             1 RES     
    1889 O           40.5380    39.4770     3.5280 O             1 RES     
    1890 O           25.0980    48.5330     8.5770 O             1 RES     
    1891 Si          33.8420    45.4100     9.7360 Si            1 RES     
    1892 O            1.0700    29.6330     2.7850 O             1 RES     
    1893 O           31.7480    46.3360     4.7500 O             1 RES     
    1894 O           46.7180    43.3970    11.7750 O             1 RES     
    1895 O           45.9950    25.4950     4.1030 O             1 RES     
    1896 Si          24.4620    20.2280     4.2260 Si            1 RES     
    1897 O            1.2180    40.0580    10.7650 O             1 RES     
    1898 O           49.7400    19.9800    10.4620 O             1 RES     
    1899 O           36.5850     7.6310    10.1330 O             1 RES     
    1900 O           32.3760    49.8430     3.1810 O             1 RES     
    1901 O           28.6740    10.7080    14.1490 O             1 RES     
    1902 O           29.5430    49.3210    12.4220 O             1 RES     
    1903 Si          38.2170    48.4220    11.3390 Si            1 RES     
    1904 O           27.3500    36.5040    12.2680 O             1 RES     
    1905 O           21.5430    31.5880     9.9880 O             1 RES     
    1906 O           34.2360    27.1980    10.1070 O             1 RES     
    1907 Si          28.9930     5.7800     3.1930 Si            1 RES     
    1908 O           16.7080    12.7920     9.7260 O             1 RES     
    1909 Si          30.0820    44.3490    13.0340 Si            1 RES     
    1910 O            8.3120    28.2320    12.0050 O             1 RES     
    1911 Si          17.5100    25.8340    12.3960 Si            1 RES     
    1912 O           13.1120    45.4360     5.0930 O             1 RES     
    1913 O            8.6580    38.8890     7.8230 O             1 RES     
    1914 O           25.4570    30.2240     5.8030 O             1 RES     
    1915 O           15.4610    30.9980    12.0200 O             1 RES     
    1916 O           20.9830    17.0100    12.4260 O             1 RES     
    1917 O            2.5790    23.0990     5.9300 O             1 RES     
    1918 Si          23.6140    20.2550     7.2040 Si            1 RES     
    1919 O           12.8580    28.5260    10.3000 O             1 RES     
    1920 Si          49.4750    31.2930     5.8120 Si            1 RES     
    1921 O           30.2560     7.0160    13.1400 O             1 RES     
    1922 O            1.0510    42.4950     2.7780 O             1 RES     
    1923 O           47.2880    39.8280     7.4040 O             1 RES     
    1924 Si          18.5590    46.0310     6.8330 Si            1 RES     
    1925 Si          34.5940    12.1700     2.8700 Si            1 RES     
    1926 O            4.8720     2.7370    12.9050 O             1 RES     
    1927 Si          22.8780    32.3050    10.6540 Si            1 RES     
    1928 O           40.5280    15.8970     7.9670 O             1 RES     
    1929 O           49.8640    21.4210    12.6100 O             1 RES     
    1930 Si          42.2390     3.0160     7.4680 Si            1 RES     
    1931 O            3.7080    32.8340    13.4430 O             1 RES     
    1932 O            2.5300    34.7780    12.6110 O             1 RES     
    1933 Si           2.4450     7.5800    14.4700 Si            1 RES     
    1934 O           49.6160    16.5430    11.2260 O             1 RES     
    1935 Si          27.6710    25.6370    12.2540 Si            1 RES     
    1936 O            9.4760    25.8230     3.2250 O             1 RES     
    1937 Si          13.1140    47.5690    13.2110 Si            1 RES     
    1938 O           16.1200    18.1080    12.2320 O             1 RES     
    1939 OS          29.6160    49.4550    15.2350 OS            1 RES     
    1940 Si           2.5000    36.8800     8.8330 Si            1 RES     
    1941 O           10.4580    19.5140    10.2270 O             1 RES     
    1942 O           31.5910     0.4320    11.3760 O             1 RES     
    1943 O            6.2520     3.0190     2.5250 O             1 RES     
    1944 O           23.7620    20.4510     5.6460 O             1 RES     
    1945 Si          32.9600    16.8100     7.8490 Si            1 RES     
    1946 O           45.8420    12.2230     2.9200 O             1 RES     
    1947 Si          27.7260    28.2960    13.6810 Si            1 RES     
    1948 Si          32.2490    34.8590     5.3880 Si            1 RES     
    1949 O           43.5730    19.3770     5.9410 O             1 RES     
    1950 O           41.4800    11.2340    10.4330 O             1 RES     
    1951 O           27.1300    19.9590    11.9050 O             1 RES     
    1952 Si           6.3650    38.1370    13.4510 Si            1 RES     
    1953 O           15.5340    25.4820     8.9350 O             1 RES     
    1954 O           44.5210    17.3100     6.5560 O             1 RES     
    1955 O           43.6050    30.4300    13.6700 O             1 RES     
    1956 O           13.6740    44.1950     7.0730 O             1 RES     
    1957 O           14.3730    14.0060    12.1490 O             1 RES     
    1958 O           15.2320    24.6720     6.5390 O             1 RES     
    1959 O           10.0290     5.5380     8.3100 O             1 RES     
    1960 Si          25.5300    22.6310     7.8570 Si            1 RES     
    1961 O            2.1790    47.9090     3.7720 O             1 RES     
    1962 Si          28.9950    23.7520     5.4270 Si            1 RES     
    1963 Si           3.1650    10.6790    10.1300 Si            1 RES     
    1964 O           16.2890    28.8230     5.1010 O             1 RES     
    1965 O           17.3520    32.1840     7.5460 O             1 RES     
    1966 Si          43.9500    35.9760    14.5880 Si            1 RES     
    1967 O           34.8070    39.4040     4.0380 O             1 RES     
    1968 Si          36.5260    42.5080     5.6500 Si            1 RES     
    1969 O           19.9540     6.7290     6.2850 O             1 RES     
    1970 O            4.6190    12.9200    13.5930 O             1 RES     
    1971 O            2.3390     4.1420     7.6210 O             1 RES     
    1972 O           41.9660    30.8780     9.8350 O             1 RES     
    1973 Si          35.8660    49.2400     2.9200 Si            1 RES     
    1974 O            8.7220    18.7280     5.6150 O             1 RES     
    1975 O           14.6250     3.0450    13.8430 O             1 RES     
    1976 Si          35.9630    37.4350     6.4760 Si            1 RES     
    1977 Si           5.4570    15.2780     7.5350 Si            1 RES     
    1978 O           27.9400    14.5790    12.6080 O             1 RES     
    1979 OS          26.5330     4.8940    15.5000 OS            1 RES     
    1980 Si          43.3240    41.8310     3.2860 Si            1 RES     
    1981 Si          43.4030    46.2690     6.1900 Si            1 RES     
    1982 Si          29.6460    11.3040     7.7860 Si            1 RES     
    1983 O           36.5260    14.3320    10.5830 O             1 RES     
    1984 O           36.0060    43.7990     6.4990 O             1 RES     
    1985 Si           8.0120    14.4310     6.0600 Si            1 RES     
    1986 Si           8.8960    23.5080    13.6690 Si            1 RES     
    1987 O           38.2490    18.3300     8.8490 O             1 RES     
    1988 O           43.7310    19.8350     3.3930 O             1 RES     
    1989 O           27.6680    35.9060     3.0870 O             1 RES     
    1990 O            0.4900    43.5340    10.0180 O             1 RES     
    1991 O           13.6420    35.4190     6.9260 O             1 RES     
    1992 Si          12.9910    27.1330    10.9580 Si            1 RES     
    1993 Si          23.8630    45.8620    11.9930 Si            1 RES     
    1994 Si          25.8870     0.5160    13.8480 Si            1 RES     
    1995 O           22.2970    48.3590     5.3120 O             1 RES     
    1996 Si          25.9610     5.2320     7.8690 Si            1 RES     
    1997 O           24.2940     1.8930     2.7680 O             1 RES     
    1998 O           16.4760    37.7040     4.3180 O             1 RES     
    1999 O           22.5200    49.9330    12.4180 O             1 RES     
    2000 Si          37.4340    32.5980    13.1870 Si            1 RES     
    2001 O           38.9960     6.4630     3.1540 O             1 RES     
    2002 Si          10.7150    31.6810    12.0640 Si            1 RES     
    2003 O           34.5510    35.6090    12.8760 O             1 RES     
    2004 Si          40.2900    17.2020     6.6710 Si            1 RES     
    2005 O            0.1750    17.8730     2.5890 O             1 RES     
    2006 O           25.4540    16.6890     4.0590 O             1 RES     
    2007 O           21.2320    41.1290     3.7910 O             1 RES     
    2008 O           47.9910    20.1320     7.5240 O             1 RES     
    2009 O           28.9260     1.4310     7.6320 O             1 RES     
    2010 Si          24.1400     6.9550     9.6920 Si            1 RES     
    2011 Si          10.0460    45.8610    12.3140 Si            1 RES     
    2012 O           19.5920    46.6460     7.8140 O             1 RES     
    2013 O           49.2820    13.9790     6.4470 O             1 RES     
    2014 Si          32.7610    30.8370     8.0090 Si            1 RES     
    2015 O           36.0280    19.1090    11.6440 O             1 RES     
    2016 O           25.9280    36.2850     9.9660 O             1 RES     
    2017 O           16.9410     1.5030    13.9450 O             1 RES     
    2018 Si           8.0890     9.1650     3.4690 Si            1 RES     
    2019 O            7.4840    43.0870     8.6110 O             1 RES     
    2020 Si          20.1150    33.9210    14.1370 Si            1 RES     
    2021 O            1.1320    27.7500     4.4110 O             1 RES     
    2022 Si          41.8280    48.1740     7.9800 Si            1 RES     
    2023 Si          38.2600     9.3290     6.6120 Si            1 RES     
    2024 O           40.4440    45.0910    11.7210 O             1 RES     
    2025 O           22.1720    28.9880    12.0870 O             1 RES     
    2026 O           22.5850    42.3680     5.5940 O             1 RES     
    2027 O            6.3640     0.9860    13.3560 O             1 RES     
    2028 O           21.1010    18.6210     4.3820 O             1 RES     
    2029 OS          40.5240    10.4340    15.8200 OS            1 RES     
    2030 O           28.6020    25.5380    10.9880 O             1 RES     
    2031 Si          45.1290    16.0420     5.8950 Si            1 RES     
    2032 O           48.0560    45.4530    12.2910 O             1 RES     
    2033 O           14.1680    24.4350     1.8690 O             1 RES     
    2034 O           13.8490    13.9900     5.4690 O             1 RES     
    2035 Si          41.6930    22.5180     5.2840 Si            1 RES     
    2036 O            7.7250    10.1780     9.7690 O             1 RES     
    2037 O           15.1780    41.4640     6.7210 O             1 RES     
    2038 O            0.5540    24.3760     6.7230 O             1 RES     
    2039 Si          38.2510    39.6490    11.1770 Si            1 RES     
    2040 Si          16.6180    37.7820    14.0810 Si            1 RES     
    2041 Si           2.9550    34.2100    14.0020 Si            1 RES     
    2042 O           13.2470     4.9020     3.6700 O             1 RES     
    2043 OS          11.5390    20.6390    15.1320 OS            1 RES     
    2044 Si          17.6370    21.3620    13.0510 Si            1 RES     
    2045 O           37.0490     8.3670     5.3170 O             1 RES     
    2046 O           18.5340     9.5700     4.7320 O             1 RES     
    2047 O           28.1010     7.5450     8.9600 O             1 RES     
    2048 O            4.4450    49.1510     3.9220 O             1 RES     
    2049 Si          34.1500     0.2340     6.9910 Si            1 RES     
    2050 O           28.9690     0.5530     5.4100 O             1 RES     
    2051 O           25.2910    45.2430    11.4690 O             1 RES     
    2052 O           48.5810     0.0460    12.8100 O             1 RES     
    2053 O            9.1010    41.7060     7.7430 O             1 RES     
    2054 O           23.3950    15.5370    13.9790 O             1 RES     
    2055 OS          46.7240    33.2900    14.4010 OS            1 RES     
    2056 O           38.2860    19.0310    13.0940 O             1 RES     
    2057 O           48.7460    16.5420    13.5350 O             1 RES     
    2058 O            2.8580    31.2520    11.5010 O             1 RES     
    2059 O           28.9490    32.9340     4.0500 O             1 RES     
    2060 Si          46.1820    13.6870    12.6920 Si            1 RES     
    2061 O           22.4060    27.0210     4.5720 O             1 RES     
    2062 O           32.4200    22.4380     3.8130 O             1 RES     
    2063 Si          19.3320    37.9810     7.2560 Si            1 RES     
    2064 O           13.0730    33.9140    13.3170 O             1 RES     
    2065 O            1.1850    49.5760    12.8470 O             1 RES     
    2066 Si          23.2730    36.9670    11.8210 Si            1 RES     
    2067 OS           2.9850    17.9980    14.8750 OS            1 RES     
    2068 O           25.0460    37.2640     7.3890 O             1 RES     
    2069 O           14.9480    19.2350     6.0250 O             1 RES     
    2070 O           20.8760    30.5270     2.4170 O             1 RES     
    2071 Si          47.2880    48.5670     9.7450 Si            1 RES     
    2072 O            4.8430    38.0640    13.1040 O             1 RES     
    2073 O           29.7890     4.3610    13.8270 O             1 RES     
    2074 Si          39.1580     5.4970    12.3780 Si            1 RES     
    2075 O            6.1050    35.7080     4.4190 O             1 RES     
    2076 O           36.5980     2.3970    12.3880 O             1 RES     
    2077 Si          15.4760    20.6070     6.7620 Si            1 RES     
    2078 O           14.5900    33.3570    11.3350 O             1 RES     
    2079 Si          17.0470     0.9500    12.4370 Si            1 RES     
    2080 O            2.3170     7.2640     8.3850 O             1 RES     
    2081 O            9.0200    36.3940     7.3610 O             1 RES     
    2082 O            0.4130    36.1710    11.9020 O             1 RES     
    2083 O            7.3160    17.2230    10.7510 O             1 RES     
    2084 OS          41.2620    38.5490    15.0810 OS            1 RES     
    2085 O           48.3180    49.4250     8.8890 O             1 RES     
    2086 Si          46.3050     7.2390    11.5810 Si            1 RES     
    2087 Si           0.9870    22.4530    12.7220 Si            1 RES     
    2088 O           12.6550    43.2920    11.9990 O             1 RES     
    2089 O            8.1300     3.5870    11.1090 O             1 RES     
    2090 O           43.5260     5.4500    13.6310 O             1 RES     
    2091 O           12.0960     9.1050     6.9030 O             1 RES     
    2092 Si          34.7290    19.2200    10.7460 Si            1 RES     
    2093 O            9.8690    36.6850     4.6570 O             1 RES     
    2094 O            6.2950    49.5440    10.8970 O             1 RES     
    2095 O           41.9290    17.3280     6.3350 O             1 RES     
    2096 O            9.4350    46.6280     4.5100 O             1 RES     
    2097 O           40.4240     8.4670     2.8820 O             1 RES     
    2098 O           16.1310    39.2250    14.1870 O             1 RES     
    2099 Si          39.6220    19.8540    13.4610 Si            1 RES     
    2100 Si          26.2590     7.5200    11.9100 Si            1 RES     
    2101 O           32.8230    46.4750     9.3520 O             1 RES     
    2102 Si           6.6160    22.6860     3.5980 Si            1 RES     
    2103 O           27.6590    26.8770     8.9330 O             1 RES     
    2104 Si          15.6720    43.1520     3.8470 Si            1 RES     
    2105 O           44.8030    25.8370     6.1180 O             1 RES     
    2106 O           12.3800     0.3960     4.1410 O             1 RES     
@<TRIPOS>BOND
       1      245     1659 1
       2      951     1733 1
       3       43      268 1
       4      185     2015 1
       5      599     1527 1
       6      524      551 1
       7      744     1675 1
       8      273     1126 1
       9      365     1609 1
      10      542     1302 1
      11      889     1531 1
      12      141      575 1
      13      320      439 1
      14      568     2020 1
      15      355      927 1
      16       26     1008 1
      17      123      361 1
      18      154      698 1
      19      531     2049 1
      20     1876     1945 1
      21     1606     1935 1
      22      146      989 1
      23     1128     2081 1
      24      277     1207 1
      25      411     1976 1
      26     1156     1927 1
      27      269     1934 1
      28     1176     1569 1
      29      957     1296 1
      30      417      593 1
      31      384     1397 1
      32      332     1854 1
      33      704     2098 1
      34      414     1431 1
      35       42     1338 1
      36      883     1800 1
      37      346     2014 1
      38      904     1155 1
      39      292     1291 1
      40     1001     1081 1
      41       58     2040 1
      42      260     1204 1
      43      774     2093 1
      44      663     1226 1
      45      230      920 1
      46     1427     1595 1
      47      182     1749 1
      48       56      526 1
      49      250     1543 1
      50       35      227 1
      51     1478     1629 1
      52     1716     1746 1
      53      639     1842 1
      54     1779     2050 1
      55      770     2046 1
      56      669     1167 1
      57     1443     2088 1
      58     1218     1308 1
      59      916     1732 1
      60      776     1863 1
      61       59     1687 1
      62      193      446 1
      63      283     1259 1
      64     1159     1931 1
      65      367      658 1
      66     1618     2102 1
      67     1154     1858 1
      68      883      912 1
      69      515     1548 1
      70     1397     1645 1
      71      491     1010 1
      72      855     1626 1
      73      525      941 1
      74     1584     1911 1
      75     1211     1430 1
      76     1617     1784 1
      77       85      595 1
      78      942     1271 1
      79       50       78 1
      80     1260     1489 1
      81     1155     1691 1
      82      297      722 1
      83     1127     1576 1
      84       81     1482 1
      85      170     1098 1
      86     1593     1853 1
      87       18      947 1
      88       66      199 1
      89      112     1358 1
      90      121     1572 1
      91      399     1883 1
      92      573     1713 1
      93       84      423 1
      94      495      574 1
      95      982     1920 1
      96      853     1300 1
      97      171      726 1
      98      239     1257 1
      99      166      778 1
     100       31      412 1
     101      868     1715 1
     102     1244     2074 1
     103      760     1790 1
     104        9     1109 1
     105      948     1223 1
     106      355     2026 1
     107      246      479 1
     108       61     1106 1
     109     1515     1764 1
     110     1058     1920 1
     111      793     1309 1
     112      535     1319 1
     113     1078     1191 1
     114      253      709 1
     115      464     1880 1
     116      534      771 1
     117      724     1217 1
     118      895     1274 1
     119     1497     1690 1
     120       29     1669 1
     121      401     2036 1
     122      491     1770 1
     123      427     1121 1
     124     1291     1323 1
     125     1269     1748 1
     126      667     1324 1
     127       18       40 1
     128      349      561 1
     129      576      632 1
     130      305     2034 1
     131      440      846 1
     132      330      736 1
     133       48     1815 1
     134      357     1993 1
     135      131      625 1
     136     1345     2074 1
     137      437     1433 1
     138      768     1724 1
     139      109     1787 1
     140     1217     1869 1
     141      485     1827 1
     142      449      687 1
     143     1093     1408 1
     144      970     1176 1
     145      166     1646 1
     146      523     1263 1
     147      536     1633 1
     148      924     1837 1
     149     1952     2072 1
     150      271      330 1
     151     1250     2100 1
     152     1227     1517 1
     153      497     1111 1
     154      999     1313 1
     155      138      378 1
     156      192      827 1
     157      680      702 1
     158      901     1422 1
     159      758     1714 1
     160      596     1089 1
     161     1488     2087 1
     162      759     1807 1
     163      815     1638 1
     164      782     1316 1
     165     1581     1605 1
     166     1028     1385 1
     167      358     1085 1
     168     1243     1767 1
     169      337      898 1
     170      871     1148 1
     171       15      172 1
     172     1658     1980 1
     173      218      323 1
     174      828     1576 1
     175     1071     1640 1
     176       50      147 1
     177     1349     2068 1
     178      290      548 1
     179      333     1820 1
     180      328      877 1
     181      967     1132 1
     182      646     1883 1
     183      617     1420 1
     184       32     1039 1
     185      111     1302 1
     186     1068     2038 1
     187      186     1927 1
     188      993     1088 1
     189      160      591 1
     190      777     1312 1
     191      753     1508 1
     192      992     1975 1
     193     1418     1792 1
     194      224     1930 1
     195     1199     1745 1
     196     1197     1675 1
     197     1236     1292 1
     198      189      668 1
     199      119      554 1
     200      641     1045 1
     201      511     1523 1
     202      911     1963 1
     203      525     1380 1
     204      390      520 1
     205     1111     2024 1
     206      510      816 1
     207      971     1104 1
     208      119      949 1
     209      124     1026 1
     210      518     1085 1
     211      156     1545 1
     212      108      640 1
     213     1419     1615 1
     214      362     1049 1
     215     1307     1909 1
     216      311      570 1
     217      829     1230 1
     218      416      574 1
     219      847     2040 1
     220      329     2011 1
     221      192     1571 1
     222      370      702 1
     223      862     1808 1
     224     1001     1908 1
     225      650      683 1
     226      633     2019 1
     227      740     1997 1
     228      663      833 1
     229      473      496 1
     230      252      966 1
     231      970     1054 1
     232     1192     1850 1
     233      586     1624 1
     234      195      586 1
     235      284      907 1
     236     1165     1517 1
     237       94     1092 1
     238     1001     1243 1
     239     1190     1929 1
     240      587     1231 1
     241      279     1648 1
     242      488      904 1
     243     1753     1811 1
     244      669     1076 1
     245      713      843 1
     246      207     1403 1
     247      178     1898 1
     248       64     1966 1
     249      339     1198 1
     250      951     1754 1
     251      262     1228 1
     252      662     1564 1
     253      347     1882 1
     254      892      967 1
     255      909     1062 1
     256      540      601 1
     257     1288     1938 1
     258     1439     1667 1
     259     1061     1804 1
     260      261     2022 1
     261      901     1511 1
     262     1145     1490 1
     263     1388     1836 1
     264     1599     1653 1
     265      492     1159 1
     266        6     1945 1
     267      547     1059 1
     268      380     1544 1
     269      732      897 1
     270      188     1404 1
     271      161     1112 1
     272      374      446 1
     273       32      356 1
     274      389      892 1
     275     1400     1889 1
     276     1387     1599 1
     277     1289     1615 1
     278      825     1033 1
     279      471     2088 1
     280     1501     1590 1
     281     1247     1800 1
     282       20     1041 1
     283      519     1110 1
     284      461     1921 1
     285     1144     1945 1
     286      181     1278 1
     287      147     1969 1
     288      420     1047 1
     289     1238     1593 1
     290       53       56 1
     291     1108     1299 1
     292       72      216 1
     293      302      414 1
     294      339     1485 1
     295     1109     1201 1
     296     1506     1891 1
     297      790     1108 1
     298      222     1600 1
     299      950     1947 1
     300      226     1501 1
     301     1215     1891 1
     302     1011     2048 1
     303      317     1223 1
     304      127     1410 1
     305      435      963 1
     306       81     1451 1
     307      438      782 1
     308      502     1911 1
     309      504     1678 1
     310       71     1615 1
     311      489     1793 1
     312      374     1645 1
     313      497     1883 1
     314      718      943 1
     315      205     1074 1
     316      759     1530 1
     317      480     1607 1
     318      772     1976 1
     319      811     1163 1
     320       68     1415 1
     321      633     1238 1
     322     1204     1995 1
     323     1698     1819 1
     324      430     1899 1
     325      487     1395 1
     326     1436     1502 1
     327      817     1688 1
     328      156     1376 1
     329      873      937 1
     330       94     1761 1
     331      503     1278 1
     332      702      952 1
     333     1174     1425 1
     334      846     1964 1
     335      243      387 1
     336     1575     1833 1
     337      245     1467 1
     338       28     1134 1
     339      429     1361 1
     340     1276     2106 1
     341      851      893 1
     342     1283     2066 1
     343       54      600 1
     344      198     1599 1
     345     1293     1851 1
     346        1     1492 1
     347      768     1731 1
     348       23     1663 1
     349       65      593 1
     350      305      638 1
     351       72     1890 1
     352      131      690 1
     353      805     1181 1
     354      414     1832 1
     355      994     1769 1
     356      439     1601 1
     357      130      868 1
     358      291      384 1
     359      668     2047 1
     360       57     1235 1
     361      225     1577 1
     362     1021     1044 1
     363       85     1046 1
     364      258      731 1
     365     1763     1982 1
     366      247     1777 1
     367      530     1029 1
     368     1242     1715 1
     369      964     1282 1
     370      239      291 1
     371     1118     1540 1
     372      664     1012 1
     373        5     1255 1
     374     1020     1739 1
     375      780     1679 1
     376     1044     1597 1
     377       10      445 1
     378      775     1020 1
     379     1066     1591 1
     380       93     1287 1
     381      778     1728 1
     382      742     1589 1
     383      457     1755 1
     384      803     1428 1
     385      695     1009 1
     386      836     1815 1
     387     1168     1884 1
     388      226     2039 1
     389      919     1720 1
     390      619     1164 1
     391       20     1809 1
     392     1205     1679 1
     393      458     1856 1
     394      123     1108 1
     395      561     1877 1
     396      165      604 1
     397      590      947 1
     398      102      693 1
     399     1651     1734 1
     400     1134     1450 1
     401     1315     1995 1
     402        3      771 1
     403      654     1059 1
     404       66     1586 1
     405      122     1429 1
     406      830     1402 1
     407       76     1392 1
     408      842     1467 1
     409      865     1588 1
     410     1259     1498 1
     411     1264     1536 1
     412      295     1786 1
     413      372     1518 1
     414      104     1512 1
     415     1179     1319 1
     416      868      933 1
     417     1220     1803 1
     418      290      808 1
     419      848     1758 1
     420      779     1063 1
     421     1735     1755 1
     422      269     2057 1
     423      281      560 1
     424      665     1520 1
     425      349     1443 1
     426     1602     1906 1
     427       60     1232 1
     428       95      655 1
     429     1079     1710 1
     430      487     1114 1
     431      268     1290 1
     432      902     1661 1
     433      335     1751 1
     434      733     2035 1
     435     1380     1818 1
     436      351     1861 1
     437      288     1352 1
     438     1935     2030 1
     439      944     1439 1
     440      709     1529 1
     441      621     1812 1
     442      516     1828 1
     443     1337     1794 1
     444      494      764 1
     445      209     2089 1
     446      755     2079 1
     447     1700     1704 1
     448      924     2083 1
     449      540      754 1
     450      494     1102 1
     451     1654     2093 1
     452      761     1847 1
     453      796     1272 1
     454      701     1123 1
     455      505     1589 1
     456      622     1481 1
     457      180      573 1
     458      244      609 1
     459      909     1177 1
     460      856      983 1
     461     1536     2067 1
     462      420     1721 1
     463      751     1015 1
     464      373      670 1
     465     1382     1819 1
     466     1161     1750 1
     467      894     1820 1
     468     1281     2031 1
     469       93      467 1
     470      809     1190 1
     471      626     1572 1
     472      581      920 1
     473      578      956 1
     474      756     1668 1
     475      531      637 1
     476      656      795 1
     477      246      498 1
     478      255     1435 1
     479     1278     1877 1
     480      330     1247 1
     481      555     1759 1
     482      442     1757 1
     483      309      372 1
     484      388      784 1
     485      953     1523 1
     486     1159     2058 1
     487      246      917 1
     488      178      606 1
     489     1009     1736 1
     490       84      468 1
     491     1603     1883 1
     492     1473     1758 1
     493      834     1290 1
     494     1367     1762 1
     495      469     1074 1
     496      122      333 1
     497     1332     1948 1
     498      827      841 1
     499      171     1515 1
     500      205     1455 1
     501     1101     1829 1
     502     1130     2064 1
     503      770     1125 1
     504      670     1472 1
     505      977     2002 1
     506      263     1186 1
     507      515     1149 1
     508      990     1119 1
     509      175      183 1
     510       26      128 1
     511      158      961 1
     512      787     1687 1
     513     1087     2099 1
     514     1308     1541 1
     515      786     1528 1
     516     1119     1213 1
     517      501     1731 1
     518     1761     1830 1
     519      612      785 1
     520     1049     2091 1
     521      765      807 1
     522     1748     1814 1
     523     1051     1372 1
     524      976     1551 1
     525      315      959 1
     526     1692     1856 1
     527     1385     2011 1
     528      563     2047 1
     529      930     1118 1
     530      691      710 1
     531     1421     2014 1
     532      932     1587 1
     533      277     1615 1
     534       78     1022 1
     535      697     1358 1
     536      947      993 1
     537     1259     2080 1
     538      301      580 1
     539      895     1769 1
     540      460      761 1
     541      335     1609 1
     542      379     1512 1
     543      398      804 1
     544      930     1685 1
     545      116     1028 1
     546      592     2076 1
     547      561     1527 1
     548     1116     1617 1
     549      303     1645 1
     550     1192     1246 1
     551      153      798 1
     552     1520     1781 1
     553      350      863 1
     554       45      569 1
     555     1438     2004 1
     556      555     2030 1
     557     1439     1796 1
     558      371      379 1
     559      769     1131 1
     560      566      966 1
     561      620     1916 1
     562     1366     1952 1
     563     1511     1873 1
     564        6       95 1
     565     1258     1971 1
     566      492      579 1
     567     1180     1266 1
     568     1174     1414 1
     569      784      906 1
     570     1051     1305 1
     571      361     1036 1
     572      598      713 1
     573      382      920 1
     574     1657     1930 1
     575      813     1545 1
     576       56     1583 1
     577     1016     1090 1
     578      158      385 1
     579     1196     1614 1
     580       19     1381 1
     581      630     2043 1
     582      664      870 1
     583      404     1440 1
     584      728     1537 1
     585      122     1991 1
     586     1181     2049 1
     587      796     1350 1
     588     1468     1994 1
     589      483      811 1
     590      284      804 1
     591      150      807 1
     592      137      850 1
     593       28       34 1
     594     1056     1945 1
     595      419      620 1
     596      371      643 1
     597      692     1461 1
     598     1829     1909 1
     599      387      830 1
     600      416      757 1
     601     1057     1973 1
     602      527     1986 1
     603     1403     1577 1
     604     1111     1752 1
     605     1252     1531 1
     606      516     2028 1
     607      875     1924 1
     608      114      608 1
     609     1376     1684 1
     610      276      700 1
     611     1119     1182 1
     612      664     1570 1
     613      654     2079 1
     614      876     1269 1
     615      920     2052 1
     616      791     2016 1
     617      685     1297 1
     618     1749     2061 1
     619      532      806 1
     620     1500     1750 1
     621      408      488 1
     622      186     1591 1
     623     1830     2007 1
     624       63     1315 1
     625      178     1449 1
     626      187     1476 1
     627       44      774 1
     628      969     1561 1
     629      373     1525 1
     630     1189     1207 1
     631     1114     1992 1
     632     1132     1185 1
     633      273     1637 1
     634     1493     1902 1
     635     1005     1759 1
     636      446     1257 1
     637     1617     2001 1
     638     1099     2008 1
     639      322     1611 1
     640      941     1296 1
     641      983     1742 1
     642      756     1369 1
     643     1105     1661 1
     644      163     1865 1
     645      101      514 1
     646      619     1327 1
     647      300     1023 1
     648     1390     2086 1
     649      398     1906 1
     650      994     2094 1
     651     1212     1816 1
     652       45     1194 1
     653       83     2028 1
     654      375      450 1
     655      488     2065 1
     656       67     1614 1
     657     1115     1747 1
     658      517     1123 1
     659      105      373 1
     660      323      348 1
     661      684      697 1
     662     1707     1826 1
     663      274     1626 1
     664      482     1070 1
     665      666      716 1
     666      613     1930 1
     667      386      616 1
     668      956     1368 1
     669      420     1663 1
     670     1230     1448 1
     671      976     1427 1
     672      184     1909 1
     673      777     1382 1
     674       52     1920 1
     675     1697     1731 1
     676      191     1664 1
     677      928     1192 1
     678       25       31 1
     679      217     1239 1
     680     1205     1521 1
     681     1130     1160 1
     682      284     1193 1
     683      676      789 1
     684      111     1080 1
     685      801     1103 1
     686      151      461 1
     687      177      431 1
     688     1155     1737 1
     689      316     1196 1
     690      565     1281 1
     691      463      678 1
     692      537     1545 1
     693      393     1317 1
     694     1490     1999 1
     695     1321     1720 1
     696      458     1364 1
     697     1711     1771 1
     698      827     1285 1
     699     1258     1783 1
     700        9      737 1
     701      256     1705 1
     702      600     2091 1
     703     1080     1602 1
     704      426     1525 1
     705       98      468 1
     706      444     1692 1
     707      326      387 1
     708       48     1266 1
     709      684     1325 1
     710     1168     1437 1
     711      403     1319 1
     712      225     1213 1
     713     1374     1757 1
     714      288     1656 1
     715      448      771 1
     716       52     1384 1
     717     1009     1476 1
     718     1140     1796 1
     719     1887     2049 1
     720      402     1858 1
     721      811     1764 1
     722     1184     1680 1
     723      489     1169 1
     724      463     2073 1
     725     1793     2087 1
     726      720      880 1
     727      221      971 1
     728     1002     1034 1
     729      208      992 1
     730     1014     1151 1
     731      957     1200 1
     732     1548     1792 1
     733      326     1059 1
     734     1349     1782 1
     735      973     1808 1
     736      681     1421 1
     737      249      636 1
     738     1344     1790 1
     739      910     1099 1
     740      132      918 1
     741      622     1407 1
     742      134      532 1
     743     1624     1890 1
     744      236      945 1
     745      198     1251 1
     746     1448     1480 1
     747      600      866 1
     748      149      940 1
     749      461     2073 1
     750      159     1242 1
     751      401     1350 1
     752      400     1101 1
     753      808      935 1
     754     1202     1644 1
     755      732     1885 1
     756      204     1515 1
     757      919     1712 1
     758     1554     1776 1
     759      423      635 1
     760      558      846 1
     761      283     1115 1
     762      935     1196 1
     763      707     1340 1
     764      869     1501 1
     765       39      996 1
     766      511     1136 1
     767       27      228 1
     768      306     1318 1
     769      721     2092 1
     770      953     1079 1
     771      310     1336 1
     772     1347     2050 1
     773     1023     1872 1
     774      268     1363 1
     775       41      209 1
     776      683     1459 1
     777     1599     1866 1
     778      599      984 1
     779      685     1684 1
     780       23     1760 1
     781       40     1958 1
     782      345     1230 1
     783      545     1288 1
     784      132     1579 1
     785      772      840 1
     786      940     1229 1
     787       80     1654 1
     788      759     1848 1
     789       63     1790 1
     790      132     1864 1
     791     1522     1876 1
     792     1071     1158 1
     793      963      974 1
     794     1317     1897 1
     795      144     1259 1
     796      119      631 1
     797     1430     1780 1
     798      178     1256 1
     799     1210     1935 1
     800      343     1371 1
     801      433      761 1
     802      490      873 1
     803       35      507 1
     804     1771     1894 1
     805      404      611 1
     806      469     1894 1
     807     1417     1449 1
     808     1473     2106 1
     809      907     1112 1
     810       17     1845 1
     811       56     1055 1
     812      676     1494 1
     813      634      881 1
     814     1627     1966 1
     815       99     1987 1
     816     1223     1776 1
     817      846      905 1
     818      553      661 1
     819      394     1536 1
     820      798     1031 1
     821      137     1411 1
     822     1215     1669 1
     823      856     1976 1
     824      222     1507 1
     825     1025     1746 1
     826     1879     2071 1
     827      353      758 1
     828     1377     1981 1
     829     1013     1101 1
     830     1293     1912 1
     831       43      728 1
     832     1612     1912 1
     833     1694     2060 1
     834       48     1868 1
     835      127     1237 1
     836      376     1242 1
     837      419      865 1
     838      749     1317 1
     839      890     1567 1
     840      166     1768 1
     841     1123     1957 1
     842     1275     1962 1
     843      576     1708 1
     844     1349     1566 1
     845       81     1374 1
     846      991     1762 1
     847      653     1472 1
     848      867     1998 1
     849      588      916 1
     850      436     1478 1
     851      425     1963 1
     852     1005     1445 1
     853      383      683 1
     854     1019     1140 1
     855      244     1370 1
     856      980     1535 1
     857      225     1674 1
     858      134      544 1
     859       79     1180 1
     860     1383     1757 1
     861       48     1867 1
     862      362      929 1
     863     1046     1773 1
     864      892     1171 1
     865      360      618 1
     866     1680     1910 1
     867      986     1933 1
     868     1483     1581 1
     869      648     1251 1
     870     1339     1504 1
     871      101      601 1
     872      338      421 1
     873      899     1762 1
     874      665     1272 1
     875      155     1000 1
     876      295      934 1
     877      604     1500 1
     878      130      242 1
     879      799     1781 1
     880     1304     1999 1
     881     1499     1937 1
     882     1168     2076 1
     883     1341     1485 1
     884      951     1073 1
     885     1171     1197 1
     886        8      334 1
     887       27     1280 1
     888      136      600 1
     889      549      810 1
     890     2069     2077 1
     891      301      391 1
     892      116      557 1
     893      566     1132 1
     894      539     1458 1
     895      463     1052 1
     896      647      970 1
     897     1217     1987 1
     898     1468     1490 1
     899      294     1980 1
     900      858      978 1
     901      202      936 1
     902      227      384 1
     903      621     1484 1
     904      478     1469 1
     905     1211     1689 1
     906      142     1918 1
     907      323      611 1
     908      215      740 1
     909      510     1010 1
     910      188      762 1
     911      365      470 1
     912      206     1140 1
     913      849     1841 1
     914     1002     1666 1
     915     2004     2095 1
     916      367      885 1
     917      114     1346 1
     918       57     1917 1
     919      143     1873 1
     920      674     1186 1
     921      743     1973 1
     922     1685     1707 1
     923      120     1136 1
     924      689     1158 1
     925      392     1585 1
     926     1626     1635 1
     927      219     1722 1
     928      115     2023 1
     929      474     1903 1
     930      513     1516 1
     931      876     1276 1
     932       24      237 1
     933     1709     1925 1
     934     1130     1496 1
     935      487     1157 1
     936      142      587 1
     937     1108     1870 1
     938      706      957 1
     939      204      246 1
     940      726     1622 1
     941      235     1730 1
     942      213     1865 1
     943      429     1514 1
     944      681      705 1
     945      916     1253 1
     946      578     1795 1
     947     1100     1268 1
     948      392     2048 1
     949      128      843 1
     950      238      769 1
     951      945     1466 1
     952      161      185 1
     953      296     1865 1
     954     1219     1921 1
     955      234      621 1
     956     1309     1942 1
     957      762      965 1
     958      377      723 1
     959     1633     1726 1
     960      407     1196 1
     961      299     1452 1
     962      327     1576 1
     963       26      603 1
     964      230     1704 1
     965      642     1514 1
     966      177     1842 1
     967     1347     1544 1
     968      949     2000 1
     969      280     1750 1
     970     1369     1399 1
     971     1494     1510 1
     972      658      679 1
     973      733     1478 1
     974      840     1967 1
     975      395     2104 1
     976      865     1378 1
     977      684     1867 1
     978      152      519 1
     979     2015     2092 1
     980      238     1969 1
     981      446     1277 1
     982     1087     1112 1
     983     1446     1524 1
     984      532      715 1
     985     1701     2006 1
     986      808     1414 1
     987      270     1138 1
     988      368      641 1
     989      248      784 1
     990      875     1751 1
     991     1020     1316 1
     992      584     1263 1
     993     1090     1454 1
     994     1188     2092 1
     995      520      755 1
     996      522     2022 1
     997      126     1433 1
     998      331     1524 1
     999      627      720 1
    1000      694     1405 1
    1001      430     1282 1
    1002     1623     1924 1
    1003     1291     1859 1
    1004      647      945 1
    1005      628     1831 1
    1006     1061     1314 1
    1007      861     1510 1
    1008      118      924 1
    1009      730     1218 1
    1010       16     1669 1
    1011      723     1222 1
    1012     1093     1503 1
    1013     1507     1632 1
    1014     1028     1126 1
    1015      965     1574 1
    1016      449     2062 1
    1017      565     1406 1
    1018      941     2080 1
    1019      343     1475 1
    1020      407     1794 1
    1021     1294     1477 1
    1022      402     1586 1
    1023      836     2051 1
    1024      385      727 1
    1025      533     1002 1
    1026      401     1012 1
    1027      886     1915 1
    1028      989     1642 1
    1029      119     1122 1
    1030     1039     1859 1
    1031     1771     2032 1
    1032     1155     1926 1
    1033      513     1118 1
    1034      517      723 1
    1035      148     1855 1
    1036      726     1565 1
    1037     1023     1766 1
    1038      289     1683 1
    1039      219     1953 1
    1040      395     1634 1
    1041     1273     1767 1
    1042      633      928 1
    1043      241     1165 1
    1044     1591     1821 1
    1045      634      730 1
    1046     1230     1532 1
    1047      763     1422 1
    1048      952     1463 1
    1049     1546     1981 1
    1050     1075     1321 1
    1051      441     1301 1
    1052     1037     1295 1
    1053     1493     1942 1
    1054      437     1508 1
    1055      725      940 1
    1056      332     1706 1
    1057      135     1937 1
    1058      150     1224 1
    1059      364     1242 1
    1060     1696     2004 1
    1061      157     1499 1
    1062     1660     1751 1
    1063      727     1678 1
    1064     1431     2077 1
    1065      898     2082 1
    1066       95     1285 1
    1067     1147     1790 1
    1068     1107     1797 1
    1069     1356     1937 1
    1070     1123     1391 1
    1071     1470     1728 1
    1072      529     1651 1
    1073      516     1832 1
    1074       30     1142 1
    1075     1539     1775 1
    1076      484     2041 1
    1077     1173     1670 1
    1078      729     1190 1
    1079      544     1413 1
    1080      262     1254 1
    1081      107      445 1
    1082     1446     1717 1
    1083      607      978 1
    1084      544     1152 1
    1085     1326     1427 1
    1086      200     1394 1
    1087      309      802 1
    1088      456      598 1
    1089      217     1375 1
    1090      331     1348 1
    1091      253      409 1
    1092     1924     2012 1
    1093      423     1482 1
    1094      867     1655 1
    1095      878     1318 1
    1096      243     1207 1
    1097      313     1300 1
    1098      918     2011 1
    1099     1148     1688 1
    1100      598     1807 1
    1101     1078     1908 1
    1102      381      765 1
    1103      248      461 1
    1104      501      716 1
    1105       91      972 1
    1106       62     2063 1
    1107     1178     2018 1
    1108      963     2032 1
    1109      250     1801 1
    1110     1359     1551 1
    1111      716     1484 1
    1112     1116     1376 1
    1113     1458     1939 1
    1114      746     1845 1
    1115     1064     1925 1
    1116      488     1434 1
    1117      453      322 1
    1118      464     1623 1
    1119      757     1083 1
    1120      140     2099 1
    1121       77      563 1
    1122     1227     1732 1
    1123     1687     1990 1
    1124      912     1024 1
    1125      380     1411 1
    1126     1531     1604 1
    1127     1067     1549 1
    1128     1293     1956 1
    1129      239     1351 1
    1130      281      717 1
    1131      351     1309 1
    1132      303      587 1
    1133      210     1497 1
    1134      257     1339 1
    1135      538     1111 1
    1136       36      892 1
    1137      741     1236 1
    1138      339     1279 1
    1139     1929     2087 1
    1140      187      743 1
    1141      977     1619 1
    1142      196      679 1
    1143      238      810 1
    1144      505     1101 1
    1145     1005     1789 1
    1146      439     1597 1
    1147       65      299 1
    1148     1033     1705 1
    1149      133     1553 1
    1150      594     1403 1
    1151     1673     1811 1
    1152      338     1070 1
    1153      174     1787 1
    1154      159      833 1
    1155     1255     1553 1
    1156      117     1605 1
    1157      233     1082 1
    1158     1417     1488 1
    1159     1021     1907 1
    1160       30     1394 1
    1161      343     1869 1
    1162     1085     1590 1
    1163      805     1900 1
    1164      832     1554 1
    1165      735     1393 1
    1166      217      610 1
    1167     1368     1699 1
    1168      946     1154 1
    1169      742     1493 1
    1170      964     1239 1
    1171      605     1330 1
    1172      129     2068 1
    1173       31       80 1
    1174      469     1425 1
    1175     1471     1779 1
    1176      188     2025 1
    1177      940     1788 1
    1178      927     1415 1
    1179      210     1373 1
    1180      862     1986 1
    1181     1063     1658 1
    1182      426      821 1
    1183     1367     1634 1
    1184      482      975 1
    1185     1318     1583 1
    1186     1783     1836 1
    1187     1515     1650 1
    1188     1053     1371 1
    1189      150     1638 1
    1190      749     1260 1
    1191      640     1886 1
    1192      974     1487 1
    1193     1738     2040 1
    1194       21      262 1
    1195     1451     1891 1
    1196     1210     1947 1
    1197      233     1354 1
    1198      987     2059 1
    1199      837     1803 1
    1200      923      938 1
    1201      423      869 1
    1202      972     1932 1
    1203      882     1044 1
    1204      909     1540 1
    1205       59     1148 1
    1206     1608     2102 1
    1207      194     1840 1
    1208      405     1909 1
    1209     1582     1863 1
    1210       39     1226 1
    1211       74      981 1
    1212      358     1435 1
    1213     1360     1472 1
    1214       86      561 1
    1215     1649     2104 1
    1216      506     1049 1
    1217      458      997 1
    1218       45      522 1
    1219      771     1474 1
    1220      301      625 1
    1221      822     1373 1
    1222      385     1006 1
    1223      457     2060 1
    1224      896     1138 1
    1225      454      233 1
    1226      694     1854 1
    1227     1612     1660 1
    1228      703     1816 1
    1229       87     1202 1
    1230      220     1662 1
    1231     1335     1380 1
    1232      427     1809 1
    1233       70      563 1
    1234     1575     2010 1
    1235      839      946 1
    1236      959     1967 1
    1237      788      867 1
    1238      864     1746 1
    1239     1236     1245 1
    1240      216     1204 1
    1241      695     1103 1
    1242      908     1996 1
    1243      739     1841 1
    1244      279     1113 1
    1245      773     1338 1
    1246      200     1827 1
    1247      895      985 1
    1248      596     1901 1
    1249      612     1332 1
    1250      944     1661 1
    1251      347     2075 1
    1252       20      801 1
    1253      838     1948 1
    1254      111     1122 1
    1255      738      740 1
    1256      891     1420 1
    1257     1736     2022 1
    1258     1672     2069 1
    1259     1365     1685 1
    1260       25      155 1
    1261      319     1412 1
    1262      552     1077 1
    1263      824     1808 1
    1264      738     1315 1
    1265      307      468 1
    1266      141     2070 1
    1267      284     1874 1
    1268      323     1904 1
    1269      800     1757 1
    1270      150     2085 1
    1271      148     1686 1
    1272     1461     1892 1
    1273      598     1326 1
    1274       33     1659 1
    1275      689     1179 1
    1276     1219     1824 1
    1277     1467     1835 1
    1278      960     1400 1
    1279     1634     2037 1
    1280      387      550 1
    1281     1578     1749 1
    1282     1063     1888 1
    1283      489     1456 1
    1284      686     1059 1
    1285     1140     2013 1
    1286     1572     1852 1
    1287     1138     1885 1
    1288      157     1153 1
    1289      103      430 1
    1290      674     1226 1
    1291      693     1622 1
    1292     1659     1782 1
    1293      777      897 1
    1294       41     1814 1
    1295       23       86 1
    1296      278     1271 1
    1297      431     1035 1
    1298     1830     2026 1
    1299      339     2009 1
    1300      278      798 1
    1301     1398     1863 1
    1302      964     1805 1
    1303      432      482 1
    1304      754     1068 1
    1305      297     1015 1
    1306     1279     1493 1
    1307       97      145 1
    1308       46      969 1
    1309      275      767 1
    1310     1009     1383 1
    1311     1252     1569 1
    1312      361      891 1
    1313      286      820 1
    1314      499     1317 1
    1315      886     2078 1
    1316      276      568 1
    1317     1549     2105 1
    1318       99     1311 1
    1319      263     1755 1
    1320     1141     1330 1
    1321      126      665 1
    1322      579     1146 1
    1323      630     1817 1
    1324     1480     1958 1
    1325      396     1767 1
    1326     1353     1724 1
    1327     1435     1506 1
    1328      688     1061 1
    1329     1305     1594 1
    1330       53      219 1
    1331      576     1620 1
    1332      100      938 1
    1333      481     1073 1
    1334      176     1492 1
    1335      530     1613 1
    1336     1135     1322 1
    1337       94      645 1
    1338        7     1263 1
    1339      157     1689 1
    1340      138     1978 1
    1341      211      942 1
    1342     1814     1959 1
    1343     1015     1107 1
    1344      577     2086 1
    1345      456     1199 1
    1346      101      139 1
    1347     1303     1914 1
    1348      653     1049 1
    1349     1241     1845 1
    1350      211     1965 1
    1351     1619     1847 1
    1352      420      666 1
    1353      356     1193 1
    1354      959     1596 1
    1355     1026     1409 1
    1356      916     1224 1
    1357       97      965 1
    1358      564     1641 1
    1359      164     1218 1
    1360       34      589 1
    1361     2056     2099 1
    1362     1183     1321 1
    1363      855     1680 1
    1364       75     1207 1
    1365       49     1800 1
    1366      957     1664 1
    1367      914     1896 1
    1368      524     2037 1
    1369     1130     2078 1
    1370      413     2060 1
    1371      103     2023 1
    1372      698     1426 1
    1373       20      175 1
    1374     1090     1343 1
    1375      360     1620 1
    1376       88      716 1
    1377     1066     1662 1
    1378      136      796 1
    1379      205     1004 1
    1380     1338     1479 1
    1381     1333     1704 1
    1382     1384     1416 1
    1383      887     1303 1
    1384     1729     2000 1
    1385       40     1953 1
    1386     1075     1373 1
    1387      162     1186 1
    1388      293      548 1
    1389      112      355 1
    1390      131     1965 1
    1391      707     1237 1
    1392     1702     1840 1
    1393      293     1593 1
    1394      795     2086 1
    1395      185     2056 1
    1396     1018     1762 1
    1397      814     1605 1
    1398      910     1017 1
    1399     1381     1491 1
    1400        8     1227 1
    1401      835      981 1
    1402     1457     1777 1
    1403       24       75 1
    1404      770     1743 1
    1405      265     1139 1
    1406     1142     1580 1
    1407      530     1253 1
    1408      258      577 1
    1409      757     1643 1
    1410      644     1836 1
    1411     1094     1205 1
    1412     1023     1413 1
    1413      668     1644 1
    1414     1487     2052 1
    1415      383     1940 1
    1416     1508     1926 1
    1417      269     1264 1
    1418      305      741 1
    1419       85     2075 1
    1420      843     1067 1
    1421      424     1911 1
    1422     1464     1672 1
    1423      320      805 1
    1424      115      244 1
    1425     1503     1554 1
    1426     1031     1564 1
    1427     1463     2003 1
    1428      641     2064 1
    1429      534     1775 1
    1430      570      852 1
    1431      452     1991 1
    1432     1106     1791 1
    1433       27     1765 1
    1434      812     2010 1
    1435     1777     1893 1
    1436     1076     1933 1
    1437     1534     1672 1
    1438     1320     1940 1
    1439      842     1820 1
    1440     1422     1432 1
    1441     1526     1940 1
    1442      698     1307 1
    1443     1226     2013 1
    1444      280     1985 1
    1445       68     1402 1
    1446       73     1334 1
    1447      281      794 1
    1448      321      966 1
    1449      110      496 1
    1450     1054     1920 1
    1451      815     1434 1
    1452      388     2100 1
    1453       40     1642 1
    1454      165     1672 1
    1455      406     1268 1
    1456        5     1846 1
    1457      288     1206 1
    1458      787      963 1
    1459      699      867 1
    1460     1607     1938 1
    1461      360      624 1
    1462      235     1050 1
    1463      147     1072 1
    1464      737     1616 1
    1465      619     1505 1
    1466     1392     1452 1
    1467       11      195 1
    1468      612      781 1
    1469      923     1528 1
    1470      494     1677 1
    1471      574     1673 1
    1472      265     1982 1
    1473     1510     1936 1
    1474      389     1208 1
    1475      240     1202 1
    1476     1406     1486 1
    1477      478     1268 1
    1478      961     1837 1
    1479     1556     1875 1
    1480       64      482 1
    1481      201     1322 1
    1482      590     1511 1
    1483     1931     2041 1
    1484      160     1053 1
    1485      651     1775 1
    1486     1797     1954 1
    1487      332     1843 1
    1488      841     1507 1
    1489      202     1919 1
    1490       22      481 1
    1491      669     1498 1
    1492       91     1260 1
    1493     1446     1743 1
    1494      667     1862 1
    1495      834     1671 1
    1496     1103     1714 1
    1497      167     1778 1
    1498      872     1462 1
    1499     1017     1744 1
    1500      304     1487 1
    1501      848     1357 1
    1502      190     1685 1
    1503      871     1192 1
    1504      972     1320 1
    1505     1419     1993 1
    1506      803     1971 1
    1507      886     1329 1
    1508     1078     1740 1
    1509     1526     1569 1
    1510      676     1096 1
    1511     1276     1509 1
    1512      726     1588 1
    1513      427      610 1
    1514      850     1624 1
    1515      129     1229 1
    1516      139     1823 1
    1517      672     1334 1
    1518       13     1478 1
    1519      542      776 1
    1520      145      220 1
    1521      564     1594 1
    1522      562     1670 1
    1523      195     1314 1
    1524      213     1384 1
    1525      857     1036 1
    1526      583     1518 1
    1527      798     1821 1
    1528     1754     1960 1
    1529      346     1602 1
    1530       57     2038 1
    1531      866     1328 1
    1532      404     1162 1
    1533      235     1030 1
    1534     1461     2021 1
    1535      193     1223 1
    1536     1386     1907 1
    1537      369     1204 1
    1538      398      615 1
    1539      124     1202 1
    1540     1090     2007 1
    1541     1557     1656 1
    1542     1007     1219 1
    1543      441      703 1
    1544     1891     2101 1
    1545      188      328 1
    1546      929     1717 1
    1547       35      858 1
    1548     1477     2084 1
    1549      486     1779 1
    1550      557     2019 1
    1551     1553     1831 1
    1552     1117     1523 1
    1553      681     1739 1
    1554       96     1462 1
    1555     1313     1589 1
    1556      802      951 1
    1557     1670     1849 1
    1558     2017     2079 1
    1559     1015     1744 1
    1560      242     1970 1
    1561       67      806 1
    1562      915     1513 1
    1563      521     1522 1
    1564      238      934 1
    1565     1079     1354 1
    1566      414      763 1
    1567      145     1329 1
    1568     1402     2012 1
    1569      127      958 1
    1570      711     1985 1
    1571     1097     1925 1
    1572     1410     1781 1
    1573     1208     1409 1
    1574     1043     1144 1
    1575        2      848 1
    1576      508     1300 1
    1577       55     1741 1
    1578      665     1324 1
    1579      633     1579 1
    1580      868     1060 1
    1581      286      344 1
    1582       69     1497 1
    1583      249     1312 1
    1584      968     1136 1
    1585      722     1681 1
    1586      232     1502 1
    1587     1773     1853 1
    1588      242     1587 1
    1589     1061     1284 1
    1590       15     2021 1
    1591      402     1596 1
    1592      845     1681 1
    1593      221      276 1
    1594     1550     2020 1
    1595      591     1950 1
    1596      864     1728 1
    1597     1763     1875 1
    1598     1424     1897 1
    1599      312     1043 1
    1600      704     1558 1
    1601     1460     1562 1
    1602     1724     2027 1
    1603      596     1824 1
    1604      784     1979 1
    1605      579      650 1
    1606      155      391 1
    1607     1139     1277 1
    1608      592      853 1
    1609      926     1651 1
    1610      817     1798 1
    1611      555     2103 1
    1612      524     1631 1
    1613      816      857 1
    1614     1778     1989 1
    1615      465     1078 1
    1616      147      168 1
    1617       89      209 1
    1618      343     1983 1
    1619      356     1629 1
    1620      307     1085 1
    1621     1723     1842 1
    1622      447     2074 1
    1623     1022     1403 1
    1624     1071     1639 1
    1625     1095     1304 1
    1626      455      489 1
    1627      402      785 1
    1628      426      644 1
    1629      464      550 1
    1630      652     1483 1
    1631     1905     1927 1
    1632     1361     1370 1
    1633      758     1244 1
    1634      430      609 1
    1635      431     1456 1
    1636      736     1826 1
    1637     1722     1992 1
    1638      508     1903 1
    1639      691     1701 1
    1640     1568     1861 1
    1641     1227     1613 1
    1642      507      516 1
    1643       19      338 1
    1644      794     1251 1
    1645      620      854 1
    1646      244     1475 1
    1647      108     1380 1
    1648      584     1529 1
    1649      441     2057 1
    1650      308     1145 1
    1651      309      324 1
    1652      127     1592 1
    1653      834     1923 1
    1654      202      580 1
    1655      718     1131 1
    1656      454     1840 1
    1657      938     1889 1
    1658     1440     1560 1
    1659     1993     2051 1
    1660      196      932 1
    1661      732     1772 1
    1662      616     1957 1
    1663       10      536 1
    1664     1077     1974 1
    1665     1004     1692 1
    1666      514     1827 1
    1667      500     1557 1
    1668      576     1306 1
    1669     1148     1441 1
    1670       38       67 1
    1671        5      687 1
    1672      527     1529 1
    1673       34     1914 1
    1674     1637     1841 1
    1675      477     1017 1
    1676      212     1993 1
    1677      814     1039 1
    1678      330     2008 1
    1679      462     1037 1
    1680     1003     1443 1
    1681       58      971 1
    1682     1216     1562 1
    1683      845     1745 1
    1684      104      122 1
    1685      637     1041 1
    1686       36     1982 1
    1687      498     1833 1
    1688        4      710 1
    1689     1011     1838 1
    1690       88     1687 1
    1691      623     1492 1
    1692     1521     1728 1
    1693        2      895 1
    1694      240     1044 1
    1695     1068     1169 1
    1696      711     1977 1
    1697      183     1899 1
    1698      630      844 1
    1699      397     1278 1
    1700     1654     2081 1
    1701      685     1643 1
    1702      236     1823 1
    1703      809     1535 1
    1704     1039     1595 1
    1705     1154     1788 1
    1706     1551     1955 1
    1707       78      990 1
    1708      966     1231 1
    1709     1006     1417 1
    1710       98     1903 1
    1711     1453     1571 1
    1712     1396     1925 1
    1713      924     1552 1
    1714     1115     1362 1
    1715      693      925 1
    1716       73      532 1
    1717      879     1535 1
    1718      712      994 1
    1719      542      826 1
    1720      205     1752 1
    1721      987     1113 1
    1722      493     1803 1
    1723       60      324 1
    1724     1918     1944 1
    1725     1153     2079 1
    1726      254      431 1
    1727      678     1458 1
    1728       69     1020 1
    1729      979     1996 1
    1730     1284     1833 1
    1731      739     1612 1
    1732     1368     1972 1
    1733      628     1032 1
    1734     1248     1978 1
    1735      599      995 1
    1736     1683     1915 1
    1737     1084     1600 1
    1738      637     1568 1
    1739     1029     1339 1
    1740      817     1698 1
    1741      294      938 1
    1742      900     1132 1
    1743       57      546 1
    1744       35     1245 1
    1745      562     1531 1
    1746     1018     2063 1
    1747      465     1328 1
    1748      267     1896 1
    1749      780     1941 1
    1750      915      995 1
    1751      591     1735 1
    1752      863     1079 1
    1753     1180     1573 1
    1754      669     1164 1
    1755      675     1088 1
    1756      827     1789 1
    1757      870     2018 1
    1758      879     1816 1
    1759      347     1703 1
    1760      857     1817 1
    1761      831      898 1
    1762       81     1984 1
    1763       82      494 1
    1764     1751     1860 1
    1765      444      694 1
    1766     1427     1972 1
    1767      189     1982 1
    1768      660     1381 1
    1769      541      720 1
    1770      744     1185 1
    1771      367      764 1
    1772      832      943 1
    1773     1187     1199 1
    1774      466      817 1
    1775      535     1875 1
    1776      250     1725 1
    1777      415     1654 1
    1778      603     1099 1
    1779     1811     1946 1
    1780      585     1960 1
    1781     1400     1533 1
    1782      342     1420 1
    1783      422     1055 1
    1784     1851     2104 1
    1785     1120     1609 1
    1786      642      656 1
    1787     1589     2101 1
    1788      434     2011 1
    1789      476     1647 1
    1790      526     2044 1
    1791      181     1952 1
    1792      556     1037 1
    1793      231     1960 1
    1794       92     1669 1
    1795       99     1696 1
    1796      873     1556 1
    1797      113     1779 1
    1798     1592     1933 1
    1799       38      728 1
    1800      719     1571 1
    1801     1191     1676 1
    1802      233     1951 1
    1803      464     1234 1
    1804      191      241 1
    1805      996     1934 1
    1806     1026     1386 1
    1807      392     1774 1
    1808     1093     2046 1
    1809      327     1369 1
    1810      256     1719 1
    1811      504      540 1
    1812      707      799 1
    1813      708     1139 1
    1814      275      978 1
    1815      745     1051 1
    1816     1019     1811 1
    1817      495     1186 1
    1818      199     1462 1
    1819      202      651 1
    1820     1201     1861 1
    1821      887     1564 1
    1822      133     1962 1
    1823      587     1195 1
    1824      931     1947 1
    1825       47     1535 1
    1826      225      475 1
    1827      632     1927 1
    1828      629     1026 1
    1829      634      955 1
    1830      107      937 1
    1831      696     1318 1
    1832      588      619 1
    1833      925      969 1
    1834      998     1986 1
    1835      872      999 1
    1836      544     1377 1
    1837      375      417 1
    1838      737     1007 1
    1839     1418     1976 1
    1840      250     1616 1
    1841     1267     1271 1
    1842      836     1325 1
    1843     1143     1341 1
    1844     1256     1826 1
    1845     1038     1960 1
    1846       10      359 1
    1847     1197     1709 1
    1848     1630     1633 1
    1849     1043     1188 1
    1850     1096     1394 1
    1851      357     1490 1
    1852      640     1178 1
    1853      331     1555 1
    1854      812     1119 1
    1855     1200     1661 1
    1856      758     1504 1
    1857      849     1211 1
    1858      334     1766 1
    1859       17       72 1
    1860       96      839 1
    1861     1249     1562 1
    1862     1016     1659 1
    1863     1327     2086 1
    1864      845     1008 1
    1865       55     1528 1
    1866      660     1336 1
    1867      552      780 1
    1868       89      667 1
    1869      509     1136 1
    1870      371     1513 1
    1871      815     1441 1
    1872      676     1000 1
    1873      943     1378 1
    1874      378     1600 1
    1875     1932     2041 1
    1876      143     1355 1
    1877     1514     1693 1
    1878     1863     2003 1
    1879      728     1922 1
    1880      982     1033 1
    1881      752     1895 1
    1882      422      528 1
    1883      256      735 1
    1884      366      704 1
    1885     1220     1258 1
    1886      224     1103 1
    1887      270     1293 1
    1888      557     2053 1
    1889       13      845 1
    1890      582     1303 1
    1891     1048     1106 1
    1892      279      705 1
    1893       90      612 1
    1894      635     1692 1
    1895      269      729 1
    1896      125     1415 1
    1897      931     1330 1
    1898     1216     2035 1
    1899       62     1662 1
    1900      614     1033 1
    1901      723     1163 1
    1902      368     2002 1
    1903     1280     1523 1
    1904      708      969 1
    1905     1102     1750 1
    1906      542      631 1
    1907      493     1011 1
    1908       94      260 1
    1909     1610     2020 1
    1910      575     1749 1
    1911      155     1539 1
    1912       77     1109 1
    1913     1820     1998 1
    1914      166     2033 1
    1915      363     1014 1
    1916      279     1450 1
    1917      746      836 1
    1918      992     1839 1
    1919       51     1180 1
    1920      533     1966 1
    1921     1843     1968 1
    1922      148     1069 1
    1923      110     2000 1
    1924      961     1127 1
    1925      903     1381 1
    1926      707     1298 1
    1927      751     1755 1
    1928       24     1558 1
    1929      107     1805 1
    1930      574     1598 1
    1931     1611     1842 1
    1932      214      792 1
    1933     1806     1996 1
    1934      229      549 1
    1935      462     1483 1
    1936     1507     1951 1
    1937     1058     1461 1
    1938      298     1668 1
    1939      459     1014 1
    1940     1818     1836 1
    1941      223      710 1
    1942      195     1143 1
    1943       11     1994 1
    1944      287      515 1
    1945      287      288 1
    1946      170     1235 1
    1947     1402     1871 1
    1948      520     1839 1
    1949      987     1648 1
    1950     1369     1974 1
    1951     1045     1594 1
    1952      884     1994 1
    1953      968     1518 1
    1954      549      688 1
    1955     1291     1874 1
    1956      911      932 1
    1957      217     2045 1
    1958      899     1358 1
    1959      661     1676 1
    1960       82      616 1
    1961      138     1089 1
    1962      203     1112 1
    1963      915     1738 1
    1964      370     1560 1
    1965      455     1678 1
    1966      338     2055 1
    1967      232     1300 1
    1968      539     1994 1
    1969       78     1628 1
    1970      197      630 1
    1971      578     1479 1
    1972      991     1830 1
    1973      350     1432 1
    1974      144     1963 1
    1975      153     1134 1
    1976      710     1032 1
    1977       60      605 1
    1978      289      877 1
    1979      677     1626 1
    1980      555      648 1
    1981      385      824 1
    1982     1693     2074 1
    1983      964     1150 1
    1984      595      683 1
    1985      578      652 1
    1986     1496     1641 1
    1987     1233     1480 1
    1988      675     1911 1
    1989      999     1893 1
    1990      921     1647 1
    1991     1304     1804 1
    1992      714      929 1
    1993      470     1444 1
    1994      668     1674 1
    1995      341      877 1
    1996     1100     1512 1
    1997     1128     1913 1
    1998      107     1396 1
    1999      475     1208 1
    2000      173     1602 1
    2001      761     1184 1
    2002       83      914 1
    2003      834     1604 1
    2004     1346     1773 1
    2005      585     1005 1
    2006      811     1086 1
    2007      549     1310 1
    2008      101     1635 1
    2009     1756     1963 1
    2010     1048     1792 1
    2011     1024     2035 1
    2012      470     1786 1
    2013     1823     2058 1
    2014      143     2061 1
    2015      796     1959 1
    2016      179      744 1
    2017      180     1368 1
    2018      367     1813 1
    2019      215      893 1
    2020       54      553 1
    2021     1347     2009 1
    2022      380      979 1
    2023      191     1390 1
    2024      606      996 1
    2025      808     1990 1
    2026      415      452 1
    2027      782     1625 1
    2028     1469     2053 1
    2029      657      987 1
    2030      553     1555 1
    2031       14     1309 1
    2032      725     1497 1
    2033      422     1166 1
    2034      422      671 1
    2035      702     1857 1
    2036      434      471 1
    2037     1129     1248 1
    2038      936     2002 1
    2039      235     1640 1
    2040      194     1248 1
    2041      271      565 1
    2042      685     1209 1
    2043     1391     1767 1
    2044       21      919 1
    2045     1514     1844 1
    2046       34      182 1
    2047      499     1593 1
    2048      797     1977 1
    2049      447     1168 1
    2050      874     1668 1
    2051      164     1303 1
    2052     1330     1625 1
    2053      111     1407 1
    2054      490     1197 1
    2055      442     1502 1
    2056     1262     1680 1
    2057      818     1516 1
    2058     1753     1787 1
    2059     1502     1887 1
    2060      207     1907 1
    2061      752      988 1
    2062      317      978 1
    2063      169     1043 1
    2064      613     1339 1
    2065     1662     1695 1
    2066     1636     1895 1
    2067      637     1121 1
    2068      859     1612 1
    2069      693     1901 1
    2070      530      569 1
    2071      141     1267 1
    2072      657     1948 1
    2073      848     2096 1
    2074     1141     1541 1
    2075       12     2100 1
    2076       99      436 1
    2077       24     1104 1
    2078      773     1393 1
    2079     1175     2099 1
    2080     1619     1910 1
    2081     1338     1495 1
    2082      548     1537 1
    2083      258     1167 1
    2084     1194     1930 1
    2085      908     2010 1
    2086      547     1304 1
    2087      117      356 1
    2088     1772     1773 1
    2089      677     1142 1
    2090      602     2102 1
    2091      640     1822 1
    2092      599     1286 1
    2093      510     1677 1
    2094      393     1940 1
    2095      421     1966 1
    2096     1424     1802 1
    2097      322     1530 1
    2098      380      572 1
    2099      641      954 1
    2100      656     2090 1
    2101      190     1977 1
    2102      512     1973 1
    2103      282     1918 1
    2104     1088     1423 1
    2105     2071     2085 1
    2106     1133     1617 1
    2107      882     1347 1
    2108     1458     1902 1
    2109      468     2024 1
    2110      451     1844 1
    2111      262      750 1
    2112      418     1981 1
    2113      185     1718 1
    2114        1      251 1
    2115      926     1473 1
    2116      239     1652 1
    2117      481      955 1
    2118      302      767 1
    2119     1017     1212 1
    2120      835     1937 1
    2121      138     1214 1
    2122     1553     2062 1
    2123      266      334 1
    2124     1233     2077 1
    2125      985     1651 1
    2126     1217     1438 1
    2127       23     1864 1
    2128      152     1576 1
    2129      692     1827 1
    2130      102     2100 1
    2131      409     1992 1
    2132      308     1465 1
    2133      364     2060 1
    2134      994     1850 1
    2135      537     1810 1
    2136      659     1315 1
    2137      285      309 1
    2138     1042     1269 1
    2139      408     1724 1
    2140      559     2044 1
    2141     1518     1710 1
    2142      472     1263 1
    2143     1405     1980 1
    2144      615     1605 1
    2145      959     1538 1
    2146      645     1924 1
    2147      909     1365 1
    2148      179      628 1
    2149      571      947 1
    2150      467     1903 1
    2151     1328     1813 1
    2152      945     1040 1
    2153     1134     1156 1
    2154     1249     1549 1
    2155     1088     1404 1
    2156      311     1322 1
    2157      873     1056 1
    2158      251     1881 1
    2159     1077     1716 1
    2160     1799     1833 1
    2161      620     2054 1
    2162      259     1393 1
    2163      724     1522 1
    2164     1344     1609 1
    2165      571      989 1
    2166        4      890 1
    2167      819     1288 1
    2168     1398     2000 1
    2169      838     1557 1
    2170      573     1491 1
    2171     1607     1765 1
    2172      919     1582 1
    2173     1801     1861 1
    2174      643      704 1
    2175      770     1072 1
    2176      681     1690 1
    2177      491      673 1
    2178     1182     1554 1
    2179       31     1703 1
    2180      783     1619 1
    2181      146      211 1
    2182       42     1549 1
    2183      310      970 1
    2184      557     1785 1
    2185      157      264 1
    2186      860     1319 1
    2187      596     1065 1
    2188       33     2063 1
    2189      191     1598 1
    2190     1258     1747 1
    2191     1198     1624 1
    2192      592      793 1
    2193      722     1311 1
    2194      273     1956 1
    2195      486      999 1
    2196     1063     1671 1
    2197     1896     1944 1
    2198      106     1777 1
    2199     1810     2097 1
    2200      264      992 1
    2201     1487     2065 1
    2202     1453     2092 1
    2203      912     1988 1
    2204      791      913 1
    2205      137      659 1
    2206      638     1676 1
    2207     1360     2018 1
    2208      589     1541 1
    2209     1392     1852 1
    2210      900     1701 1
    2211      355     1686 1
    2212      617     1536 1
    2213      114     1363 1
    2214     1093     1331 1
    2215      253      523 1
    2216      981     1221 1
    2217     1248     1561 1
    2218     1151     1412 1
    2219      392     1961 1
    2220      452     1442 1
    2221      114     1389 1
    2222     1246     1731 1
    2223      242      425 1
    2224      748     1865 1
    2225      337     1424 1
    2226      759     1955 1
    2227      515     1795 1
    2228     1508     2027 1
    2229     1384     1466 1
    2230     1003     1028 1
    2231      353     1322 1
    2232        7     1142 1
    2233       93      399 1
    2234      839     1013 1
    2235      129     2016 1
    2236       16      839 1
    2237      491      790 1
    2238     1053     1928 1
    2239     1348     1472 1
    2240       46      865 1
    2241      197     1986 1
    2242       70     1341 1
    2243      325      622 1
    2244      570     1700 1
    2245     1424     1812 1
    2246      401      885 1
    2247      316      469 1
    2248     1803     1878 1
    2249      649     1473 1
    2250     1262     1529 1
    2251      174     1633 1
    2252      427     1270 1
    2253      496     1699 1
    2254      477      996 1
    2255      607     1001 1
    2256      451     1563 1
    2257      890     1275 1
    2258     1069     1349 1
    2259      451     1050 1
    2260     1682     1683 1
    2261      282     1422 1
    2262     1968     1984 1
    2263     1442     1641 1
    2264      664     1886 1
    2265      915     1160 1
    2266      524      788 1
    2267     1794     1879 1
    2268     1400     1401 1
    2269     1172     1787 1
    2270      272     1071 1
    2271     2040     2098 1
    2272      137      229 1
    2273      386      510 1
    2274     1412     1632 1
    2275      403      737 1
    2276     1797     1949 1
    2277     1362     1433 1
    2278     1364     2039 1
    2279     1541     2103 1
    2280      458      626 1
    2281     1420     1552 1
    2282     2023     2045 1
    2283      219      502 1
    2284      591     1030 1
    2285     1218     1653 1
    2286     1128     1459 1
    2287      109     2031 1
    2288      506      664 1
    2289      941     1428 1
    2290      299      450 1
    2291     1372     1952 1
    2292      579     1474 1
    2293      397     1128 1
    2294      438      791 1
    2295      169      689 1
    2296      132     1697 1
    2297      314      604 1
    2298      828     2102 1
    2299      410     2041 1
    2300      173     1251 1
    2301     1791     2039 1
    2302     1387     1962 1
    2303      249     2096 1
    2304      747     1647 1
    2305      690      886 1
    2306     1376     1657 1
    2307     1480     1646 1
    2308      170     1240 1
    2309      214      860 1
    2310      833     1756 1
    2311      620     1702 1
    2312      214     1547 1
    2313     1222     1328 1
    2314      342     1417 1
    2315     1445     1962 1
    2316      958     1433 1
    2317      903     1551 1
    2318     1137     1741 1
    2319      441     1342 1
    2320      529     1814 1
    2321      296      752 1
    2322      305     1740 1
    2323      145     1610 1
    2324       61      496 1
    2325      184     1560 1
    2326      183     1543 1
    2327      350     1733 1
    2328     1120     1276 1
    2329     1534     1746 1
    2330       95      252 1
    2331      965     1905 1
    2332      448     2002 1
    2333      623     2035 1
    2334       60     2025 1
    2335       10     1621 1
    2336     1241     1462 1
    2337     1797     2095 1
    2338      706      833 1
    2339       76     1477 1
    2340      797      932 1
    2341     1954     2031 1
    2342      214     1065 1
    2343     1234     1634 1
    2344      857     1941 1
    2345      822     1463 1
    2346      983     1401 1
    2347      560     1571 1
    2348      553     1665 1
    2349      460     1159 1
    2350      325     1947 1
    2351      209      766 1
    2352      312     1600 1
    2353     1510     1768 1
    2354     1408     1676 1
    2355     1228     1557 1
    2356     1585     1819 1
    2357     1183     1948 1
    2358     1670     1727 1
    2359     1154     1855 1
    2360     1190     1898 1
    2361     1306     2020 1
    2362      540     1580 1
    2363      570      581 1
    2364       29     1560 1
    2365      428     1014 1
    2366      208      667 1
    2367      234     1771 1
    2368      487     1682 1
    2369      922     1467 1
    2370     1124     1678 1
    2371     1254     1483 1
    2372      281     1846 1
    2373      336      698 1
    2374     1011     1274 1
    2375      352     1569 1
    2376      597     1636 1
    2377      471     1356 1
    2378        5      521 1
    2379     1919     1992 1
    2380      983      997 1
    2381      286     1447 1
    2382      628      655 1
    2383     1110     1826 1
    2384     1928     2004 1
    2385     1138     1631 1
    2386     1150     1875 1
    2387     1361     1950 1
    2388      570     1170 1
    2389      411     1321 1
    2390      168      893 1
    2391      258      376 1
    2392      700     2066 1
    2393     1742     1968 1
    2394     1297     1361 1
    2395      257      656 1
    2396      313     1435 1
    2397     1221     1780 1
    2398      381      803 1
    2399      435     2071 1
    2400      424      877 1
    2401     1035     1823 1
    2402      398      717 1
    2403     1341     1806 1
    2404       49     1099 1
    2405      148      880 1
    2406      118     1977 1
    2407     1173     1741 1
    2408     1261     2044 1
    2409      251     1460 1
    2410      268      889 1
    2411      604     2034 1
    2412     1336     1416 1
    2413      765     1878 1
    2414      418     2022 1
    2415     1236     1331 1
    2416        3     1641 1
    2417      805     1057 1
    2418      734     1816 1
    2419      722     1175 1
    2420      306     1288 1
    2421     1115     1737 1
    2422      249     1091 1
    2423     1379     1973 1
    2424     1162     1373 1
    2425      519     1124 1
    2426      354      384 1
    2427      813     1165 1
    2428      273     1880 1
    2429      744     1834 1
    2430     1053     1630 1
    2431      757     1726 1
    2432      989     1964 1
    2433      452      682 1
    2434      350     1423 1
    2435      298     1985 1
    2436       92     1501 1
    2437      295     1665 1
    2438      777     1785 1
    2439       12      563 1
    2440     1149     1528 1
    2441      301      682 1
    2442      922     1271 1
    2443       79     1358 1
    2444      767      819 1
    2445      679     2036 1
    2446      503     1469 1
    2447       27     1916 1
    2448      912     1949 1
    2449     1265     1269 1
    2450       66      106 1
    2451     1486     2005 1
    2452     1209     2023 1
    2453     1566     1778 1
    2454     1086     1131 1
    2455      634     1578 1
    2456      480     2044 1
    2457      894     2063 1
    2458      689     1983 1
    2459      712     1780 1
    2460      432      898 1
    2461      253     1094 1
    2462     1516     1825 1
    2463      719     1412 1
    2464      815      837 1
    2465      340      471 1
    2466       51     2066 1
    2467      162     2031 1
    2468      943     1081 1
    2469      732      939 1
    2470      459      622 1
    2471      519     1917 1
    2472      285     1935 1
    2473     1516     1822 1
    2474      545      616 1
    2475     1519     1545 1
    2476      223     1896 1
    2477       22      143 1
    2478     1077     1161 1
    2479      443      565 1
    2480      375     1713 1
    2481      766     1780 1
    2482      750     2014 1
    2483      183     1345 1
    2484      426     1943 1
    2485      295      390 1
    2486      721     1522 1
    2487      592     1436 1
    2488     1469     1913 1
    2489      543     1507 1
    2490      679     1340 1
    2491     1260     2072 1
    2492      567     2087 1
    2493     1250     2010 1
    2494       71      308 1
    2495     1051     1146 1
    2496     1645     2006 1
    2497      971     1695 1
    2498       90      840 1
    2499      972     2082 1
    2500      167     1564 1
    2501      520     1444 1
    2502      472     1205 1
    2503      274     1775 1
    2504      131     1429 1
    2505      373     1734 1
    2506      791     1904 1
    2507     1105     1165 1
    2508      322     1040 1
    2509      400     1845 1
    2510      163      843 1
    2511      308      686 1
    2512      913     2066 1
    2513     1137     1393 1
    2514      747     1477 1
    2515     1225     1781 1
    2516      361     2083 1
    2517     1357     1841 1
    2518     1038     1918 1
    2519     1131     1799 1
    2520     1042     1211 1
    2521      451     2029 1
    2522      621      888 1
    2523      823     1463 1
    2524      473     1002 1
    2525     1334     1961 1
    2526      800     2049 1
    2527      231      481 1
    2528     1283     1591 1
    2529      299      975 1
    2530      470     1265 1
    2531      782     1559 1
    2532      259     1336 1
    2533      187      318 1
    2534      375      786 1
    2535     1195     1840 1
    2536     1542     2039 1
    2537      211     1574 1
    2538     1337     1981 1
    2539      315     1968 1
    2540      345     1511 1
    2541     1603     1704 1
    2542     1712     1792 1
    2543      439     1270 1
    2544       45     1152 1
    2545      878     2077 1
    2546      329      981 1
    2547       26      980 1
    2548     1083     1810 1
    2549       87     1109 1
    2550      352      593 1
    2551      344     2004 1
    2552      382     2071 1
    2553     1392     1455 1
    2554      149      404 1
    2555     1334     1798 1
    2556     1542     1647 1
    2557      752     2105 1
    2558      748     1068 1
    2559       37     1037 1
    2560      696      780 1
    2561      893     1310 1
    2562      321     1139 1
    2563     1174     1802 1
    2564     1570     1985 1
    2565       72      125 1
    2566      129     1573 1
    2567       15      546 1
    2568       85      608 1
    2569      694     1546 1
    2570      551     1512 1
    2571      228      767 1
    2572      988     1800 1
    2573      559     1523 1
    2574      962     1933 1
    2575       93      201 1
    2576      331     2042 1
    2577      646     1794 1
    2578     1027     1607 1
    2579       67     1888 1
    2580      466      548 1
    2581      744     1203 1
    2582     1286     1594 1
@<TRIPOS>SUBSTRUCTURE
       1 RES             1 RESIDUE    0 **** ROOT      0
