@<TRIPOS>MOLECULE
RES
1787 2178 1 0 1
SMALL
NO_CHARGES
@<TRIPOS>CRYSIN
   50.0000    50.0000    18.0830    90.0000    90.0000    90.0000  1  1
@<TRIPOS>ATOM
       1 O           39.3280    24.2340     3.1580 O             1 RES     
       2 O            8.4580    48.5390     6.1960 O             1 RES     
       3 O            9.9370    34.3450     9.7080 O             1 RES     
       4 O           27.9310    20.9500     2.9650 O             1 RES     
       5 Si          34.0510    21.9090     6.4800 Si            1 RES     
       6 O           31.4160    17.1410     7.9150 O             1 RES     
       7 O            7.4230    25.4710     6.7820 O             1 RES     
       8 O           47.1120     3.1090     5.5400 O             1 RES     
       9 O           32.8980     7.8050     9.9470 O             1 RES     
      10 Si          38.7810    11.9610     4.5220 Si            1 RES     
      11 O           25.3700     1.5880    12.7280 O             1 RES     
      12 O           28.2200     7.4620    11.4690 O             1 RES     
      13 O           41.5420    22.2820     9.1930 O             1 RES     
      14 O           31.7550     1.9730    13.4760 O             1 RES     
      15 Si           1.2140    26.3900     3.6200 Si            1 RES     
      16 O           32.1660    42.1050     9.0280 O             1 RES     
      17 O           26.2930    46.3710     7.6460 O             1 RES     
      18 O           17.5360    25.3840     7.5700 O             1 RES     
      19 O           45.4190    33.1370    12.1080 O             1 RES     
      20 Si          37.4340     4.1390     8.1680 Si            1 RES     
      21 O           35.4360    32.8570     8.7280 O             1 RES     
      22 O           23.7070    24.5910     4.9950 O             1 RES     
      23 O            9.6650    31.9680     5.7910 O             1 RES     
      24 Si          45.4860    22.8860    10.2000 Si            1 RES     
      25 Si          19.9930    18.2280    12.3350 Si            1 RES     
      26 O           24.5250    30.7410     7.9630 O             1 RES     
      27 O           32.6640    41.9310    11.4990 O             1 RES     
      28 O            6.5590    27.3500     5.0100 O             1 RES     
      29 Si           8.9520    33.0600     4.9870 Si            1 RES     
      30 O           40.1130    25.9410     9.7650 O             1 RES     
      31 O           20.6210    37.5380     6.4480 O             1 RES     
      32 Si          24.6920    29.4830     6.9840 Si            1 RES     
      33 Si          19.3940    15.7420     5.6330 Si            1 RES     
      34 O           29.8760    11.7970     6.2890 O             1 RES     
      35 O           37.9360    30.6050     3.1040 O             1 RES     
      36 O           49.3000    43.1650     4.7740 O             1 RES     
      37 O           49.2410    15.4300     8.7790 O             1 RES     
      38 Si          16.0040    25.6960     7.5250 Si            1 RES     
      39 O           10.2360     3.4110     9.6970 O             1 RES     
      40 O           43.4210    28.2730     6.3950 O             1 RES     
      41 O            0.1870    40.6520     3.9740 O             1 RES     
      42 O           11.9330    36.8760     3.0060 O             1 RES     
      43 Si          43.8870     0.3740     7.3530 Si            1 RES     
      44 O           23.3580    12.3080    11.7210 O             1 RES     
      45 Si          25.3870    41.5760    12.4880 Si            1 RES     
      46 O           46.0860    21.2950     7.0170 O             1 RES     
      47 O           21.7340     6.6160     4.3500 O             1 RES     
      48 O           23.6280    38.4180    11.4120 O             1 RES     
      49 O           48.4240    30.3200     6.4430 O             1 RES     
      50 O           14.8410    23.7240    11.1040 O             1 RES     
      51 O           13.8720     7.7270     8.0010 O             1 RES     
      52 O           42.9320    35.6550     5.0210 O             1 RES     
      53 Si          14.9580    22.2990    11.7660 Si            1 RES     
      54 Si           1.3660    23.9370     5.4410 Si            1 RES     
      55 OS          17.8410    37.7820    13.0870 OS            1 RES     
      56 O            2.1070    45.4170     9.4240 O             1 RES     
      57 Si          23.7100    28.9220    12.3920 Si            1 RES     
      58 O           38.9530    35.4330    11.0830 O             1 RES     
      59 O           18.9750    37.1960     8.6150 O             1 RES     
      60 O           20.4090    49.8920     4.6600 O             1 RES     
      61 OS          45.0010    36.9310    13.7540 OS            1 RES     
      62 O           46.3590    38.6730     9.4100 O             1 RES     
      63 Si          30.3630    42.9570     3.6210 Si            1 RES     
      64 O           22.5390     0.6400     1.6870 O             1 RES     
      65 Si          47.8950    43.8810     5.0840 Si            1 RES     
      66 O           21.7380    45.4450     8.6830 O             1 RES     
      67 O           29.7260    34.7920    11.3840 O             1 RES     
      68 O           28.0750     5.0820    10.5820 O             1 RES     
      69 Si          24.9300    47.1050     7.6980 Si            1 RES     
      70 O           49.2420    47.3080     4.1190 O             1 RES     
      71 OS          42.6700    39.8890    13.3630 OS            1 RES     
      72 O           30.4550     7.1310    10.0400 O             1 RES     
      73 Si          23.1700     7.2460     4.4180 Si            1 RES     
      74 O           22.6910    40.0080     9.8390 O             1 RES     
      75 O            9.2430    34.4260     5.6130 O             1 RES     
      76 Si          35.9510    45.0840     7.4200 Si            1 RES     
      77 O           13.0020    14.6690    10.0680 O             1 RES     
      78 Si          22.3030    18.2180     3.4300 Si            1 RES     
      79 O           38.6920    44.6600     9.9650 O             1 RES     
      80 Si           5.3750    36.6310     5.4460 Si            1 RES     
      81 O           31.6610     6.9240     7.6810 O             1 RES     
      82 OS           2.1040    44.4950    11.9170 OS            1 RES     
      83 O           33.2710    37.6820     4.3090 O             1 RES     
      84 O            2.5230    37.1640    12.4500 O             1 RES     
      85 O           34.7990    41.8550    10.2240 O             1 RES     
      86 Si          20.4020    45.1770     4.5950 Si            1 RES     
      87 Si          30.0820    17.9670     7.9450 Si            1 RES     
      88 O           30.5780    43.3520     7.2540 O             1 RES     
      89 O           19.3900    32.4830    10.8440 O             1 RES     
      90 O           38.7970    47.0110    10.9690 O             1 RES     
      91 Si          39.4990    19.3740     8.7080 Si            1 RES     
      92 O           42.9490    38.5760     2.4350 O             1 RES     
      93 Si           3.8240    29.5800     7.9930 Si            1 RES     
      94 OS          26.1210     8.9700    12.5670 OS            1 RES     
      95 O           37.3440     8.4030     7.9400 O             1 RES     
      96 O           15.1020    37.0500     8.0510 O             1 RES     
      97 O            9.6790     3.5510     2.8980 O             1 RES     
      98 O           31.5790    43.9430     3.5960 O             1 RES     
      99 Si          35.8900    12.3490     5.6510 Si            1 RES     
     100 O            4.2640     9.0260     4.7800 O             1 RES     
     101 O           44.0270    15.3980     4.9560 O             1 RES     
     102 OS          38.3090    33.0360    11.9640 OS            1 RES     
     103 Si          32.8510    29.5180    12.2650 Si            1 RES     
     104 O           22.9350    41.4540     7.9210 O             1 RES     
     105 O           30.0370    49.7050     3.3810 O             1 RES     
     106 Si           3.5000    38.7530     4.4320 Si            1 RES     
     107 O           38.2010    10.6540     7.5920 O             1 RES     
     108 O            9.7210    44.1600     8.4230 O             1 RES     
     109 O           38.4650    25.9060     8.1340 O             1 RES     
     110 O            6.0940    16.2190     8.6880 O             1 RES     
     111 OS          41.3560    36.3370    10.0850 OS            1 RES     
     112 Si          15.1630    35.7140     7.3010 Si            1 RES     
     113 O            7.6490    16.0520    13.1470 O             1 RES     
     114 O           31.1850     7.8320     5.0870 O             1 RES     
     115 O           24.1550    46.1000     8.5750 O             1 RES     
     116 O            8.2810     6.0230    12.1260 O             1 RES     
     117 O           45.3310    24.4320     9.8760 O             1 RES     
     118 Si          25.6960    37.4590     8.8510 Si            1 RES     
     119 Si          15.9380    32.7240     8.1010 Si            1 RES     
     120 Si           7.5200    44.1720    12.3700 Si            1 RES     
     121 O           30.4440    23.0700     5.2210 O             1 RES     
     122 O           46.7050    47.7370     5.0130 O             1 RES     
     123 O           11.4490     7.4630     8.7760 O             1 RES     
     124 Si          23.7950     1.6760     6.8390 Si            1 RES     
     125 O            2.8600    30.0720     9.2260 O             1 RES     
     126 Si          21.9800    30.9280     3.3940 Si            1 RES     
     127 O           24.3500    18.9630     7.6670 O             1 RES     
     128 O            8.7010    16.3040     2.2870 O             1 RES     
     129 Si          22.5320    25.0840     4.1390 Si            1 RES     
     130 O            3.2820     9.1310    10.0050 O             1 RES     
     131 Si          18.5560    33.6670    11.4620 Si            1 RES     
     132 O           39.1110    21.6780     2.3750 O             1 RES     
     133 O           17.6690    29.6720     7.1160 O             1 RES     
     134 Si          20.2150     6.4960     4.7090 Si            1 RES     
     135 Si          26.0590    40.8180     5.8490 Si            1 RES     
     136 O           28.9650    38.7850    10.2090 O             1 RES     
     137 Si          49.4280     0.5340     8.6050 Si            1 RES     
     138 O            4.7720    21.7590     6.4550 O             1 RES     
     139 O           24.2530    33.2980     7.8670 O             1 RES     
     140 Si          10.7020    30.7490     6.1000 Si            1 RES     
     141 O           42.6700     5.6730     5.2900 O             1 RES     
     142 Si          14.2700    49.9640    11.6860 Si            1 RES     
     143 O            6.6100    21.1300    10.0300 O             1 RES     
     144 O           49.4510    11.8250    10.8060 O             1 RES     
     145 O           41.1260    13.8420     9.8870 O             1 RES     
     146 O           45.6810    15.0260     7.0230 O             1 RES     
     147 O           46.7460    26.3010     8.8480 O             1 RES     
     148 O           27.8520    30.1570     5.1630 O             1 RES     
     149 O           14.0080    16.7380     5.3380 O             1 RES     
     150 O           27.0560    41.8310     1.9940 O             1 RES     
     151 Si          13.3490    24.6240     3.2190 Si            1 RES     
     152 O           25.9020    34.8710     4.4290 O             1 RES     
     153 O           20.1230     4.8830     4.5910 O             1 RES     
     154 O           34.1470    15.1210    11.3000 O             1 RES     
     155 Si           1.3730    22.1510     2.9220 Si            1 RES     
     156 O           49.7900    25.9860     3.1710 O             1 RES     
     157 O           32.2150    27.3290     8.7490 O             1 RES     
     158 O           42.4190    13.5680     5.7240 O             1 RES     
     159 O           37.2140     5.2770     9.2580 O             1 RES     
     160 O           40.9980    23.4960     1.5910 O             1 RES     
     161 OS           0.6460    27.9250    13.3760 OS            1 RES     
     162 Si           0.8110    19.1590     9.6580 Si            1 RES     
     163 O           30.5330    18.1760     4.0030 O             1 RES     
     164 O           41.9850    33.4010     8.8860 O             1 RES     
     165 OS           6.9590    38.8170    12.1150 OS            1 RES     
     166 O           23.5630    28.8290     6.0310 O             1 RES     
     167 Si          36.8960     6.1620    10.4730 Si            1 RES     
     168 OS          30.9060    42.8970    12.8760 OS            1 RES     
     169 O           22.3450    33.7720    10.4280 O             1 RES     
     170 Si          38.7720    49.4470     3.8340 Si            1 RES     
     171 Si          20.6320    28.6790    11.6590 Si            1 RES     
     172 O           29.1060     9.9070     8.0490 O             1 RES     
     173 O            4.3300    16.1090     6.8260 O             1 RES     
     174 Si          46.1970     8.4660     8.6420 Si            1 RES     
     175 O           31.4770    20.9200    10.3250 O             1 RES     
     176 O           23.6740    13.7090     7.1970 O             1 RES     
     177 O           25.7850    16.0530    11.2930 O             1 RES     
     178 Si          25.0720     2.0650    11.2810 Si            1 RES     
     179 O            6.5130    12.3630    10.0980 O             1 RES     
     180 O           31.2430    26.1310     6.4910 O             1 RES     
     181 O           29.5560    43.4330     4.9100 O             1 RES     
     182 O            5.5290    29.6980     4.5780 O             1 RES     
     183 Si          12.1290    29.9390     9.9840 Si            1 RES     
     184 Si          42.9810    42.5610    10.5600 Si            1 RES     
     185 O            0.0220    14.5270     4.1100 O             1 RES     
     186 O           27.5270     6.1070     3.8020 O             1 RES     
     187 Si           9.4180     2.8310    10.8570 Si            1 RES     
     188 O           31.6600    36.1520    10.5500 O             1 RES     
     189 Si          18.5290    31.0570     7.4200 Si            1 RES     
     190 OS          22.9530    45.1110    10.9490 OS            1 RES     
     191 O           47.5310    28.1790     7.5710 O             1 RES     
     192 O           22.0970     2.9560     3.5790 O             1 RES     
     193 O           23.9750    47.1680     6.4300 O             1 RES     
     194 Si          35.6350     7.7970     5.0950 Si            1 RES     
     195 Si          15.2560    25.1420    10.4270 Si            1 RES     
     196 O           18.6580    35.0890    10.6360 O             1 RES     
     197 OS          20.2660    37.5690    13.8000 OS            1 RES     
     198 O           29.7200    18.0810    12.3670 O             1 RES     
     199 O           26.0000    19.8770     4.2940 O             1 RES     
     200 O           41.0400     2.2550     8.1180 O             1 RES     
     201 Si          26.5050     9.2230     5.5330 Si            1 RES     
     202 O           36.9120    40.4130    10.7990 O             1 RES     
     203 O           20.7340    15.2520     4.9050 O             1 RES     
     204 O           19.4960    18.3400    10.8120 O             1 RES     
     205 O           22.9330     2.9620     7.0930 O             1 RES     
     206 O           25.5590    23.5770     6.4960 O             1 RES     
     207 O           34.9440    48.6380    11.0810 O             1 RES     
     208 Si          25.5740    19.7440    11.9030 Si            1 RES     
     209 O            0.6750    30.5180    10.5840 O             1 RES     
     210 Si          19.9420     6.1710     7.7720 Si            1 RES     
     211 Si          23.1990    12.0790     3.8050 Si            1 RES     
     212 O           30.8380     5.4450     5.9680 O             1 RES     
     213 O           45.9100     7.5290     7.3860 O             1 RES     
     214 Si           3.6840    12.8230    12.3480 Si            1 RES     
     215 OS          18.8100    44.6700    12.2700 OS            1 RES     
     216 Si          38.0060    11.3040     9.0220 Si            1 RES     
     217 O           20.9740    36.1480     4.3800 O             1 RES     
     218 O           33.5230    45.4890     2.9160 O             1 RES     
     219 Si           9.2410    45.5480     3.3790 Si            1 RES     
     220 Si          34.3650     5.5360    12.3320 Si            1 RES     
     221 Si          39.6160    25.8090     3.1450 Si            1 RES     
     222 O           28.8550    16.9830     8.2740 O             1 RES     
     223 Si          10.8730    25.4460     9.4090 Si            1 RES     
     224 OS           2.9380    27.3670    13.5110 OS            1 RES     
     225 OS          33.3940    45.2420    13.7960 OS            1 RES     
     226 Si          45.8650    31.8970     2.7980 Si            1 RES     
     227 O           43.3990     5.4610    10.9030 O             1 RES     
     228 O           45.3100    32.5620     6.9560 O             1 RES     
     229 O           21.8170    45.9040     5.1190 O             1 RES     
     230 O           42.0710    47.7170     9.4400 O             1 RES     
     231 Si          35.4420    32.0520     7.3890 Si            1 RES     
     232 O           45.1310    14.1860     9.3770 O             1 RES     
     233 O           13.7230     1.3210    12.2550 O             1 RES     
     234 O           28.4180    12.2310     8.3410 O             1 RES     
     235 O           48.1150     3.6560     3.2300 O             1 RES     
     236 O           24.3630    21.2010     2.9820 O             1 RES     
     237 Si           0.4750    39.2730     4.6870 Si            1 RES     
     238 Si          49.8290    17.2240    12.6160 Si            1 RES     
     239 O           11.8830    42.9360     5.5030 O             1 RES     
     240 O           48.1000    18.5900     5.2710 O             1 RES     
     241 Si          13.5760    45.1310     8.3190 Si            1 RES     
     242 O            7.9420    29.6150     8.5510 O             1 RES     
     243 O           19.4490    16.2870     9.2650 O             1 RES     
     244 O           21.8720    33.0660     6.7000 O             1 RES     
     245 Si          28.1680    32.5160     7.8900 Si            1 RES     
     246 O            9.3260    14.7530     6.8240 O             1 RES     
     247 Si          33.4080    23.7200     8.8770 Si            1 RES     
     248 O           22.0920    20.6210     7.5910 O             1 RES     
     249 O            3.4620     6.4040    10.5250 O             1 RES     
     250 Si          37.3120    24.5400    11.4470 Si            1 RES     
     251 O           26.2140    25.8960    11.8030 O             1 RES     
     252 Si          39.0690    17.2800     3.3630 Si            1 RES     
     253 O           38.6180    34.2620     4.5350 O             1 RES     
     254 Si          37.6040    34.2130     3.3530 Si            1 RES     
     255 O            0.7970    42.5890     7.7990 O             1 RES     
     256 O           22.2110    13.2820     3.8790 O             1 RES     
     257 O            3.3010    42.0190     7.2270 O             1 RES     
     258 O           42.6960    40.5310     3.8590 O             1 RES     
     259 Si          17.0000     5.1450     8.0970 Si            1 RES     
     260 O           47.1890    25.8760     6.4000 O             1 RES     
     261 O           42.6210    18.3830    10.7470 O             1 RES     
     262 O            8.0760    15.1190     4.6190 O             1 RES     
     263 Si          45.0950    38.4250    10.3500 Si            1 RES     
     264 O           45.8150     0.0320     1.4580 O             1 RES     
     265 Si          12.9980    31.8610     7.7030 Si            1 RES     
     266 O           18.4430    18.7220     8.4660 O             1 RES     
     267 O           24.4370    16.7460     6.5860 O             1 RES     
     268 Si          14.9540    12.9100     6.0530 Si            1 RES     
     269 O           14.9650    18.7910     9.9840 O             1 RES     
     270 Si          24.7280    26.1950    11.4530 Si            1 RES     
     271 O           47.3630    32.9210     8.3330 O             1 RES     
     272 O           32.0960    16.7640    11.4900 O             1 RES     
     273 O           34.8860    47.1780    12.9650 O             1 RES     
     274 O           12.7500    15.3170     3.5650 O             1 RES     
     275 O           35.1600    41.7720     5.1760 O             1 RES     
     276 O           46.3020    43.3040     9.1230 O             1 RES     
     277 O           21.4630    14.5980     8.6160 O             1 RES     
     278 O           38.8250    47.9060     3.5560 O             1 RES     
     279 O           33.4650     1.9990     3.7860 O             1 RES     
     280 O           27.3030    14.6550     8.4230 O             1 RES     
     281 O           24.3010    27.5890    11.8080 O             1 RES     
     282 O           18.4060    47.3430    11.6440 O             1 RES     
     283 O            6.4100    19.6400     5.3440 O             1 RES     
     284 Si          48.5780    19.7920     6.0330 Si            1 RES     
     285 Si          13.2120     6.2720     4.4060 Si            1 RES     
     286 Si          38.8670    43.7710     3.9090 Si            1 RES     
     287 O           16.1730    35.9180     6.1790 O             1 RES     
     288 Si          46.9800     2.9410     3.9820 Si            1 RES     
     289 O           16.4210    48.9450     5.2640 O             1 RES     
     290 Si          28.4320     0.9860     9.0180 Si            1 RES     
     291 O            3.7910    19.2340    12.2220 O             1 RES     
     292 Si          37.3810    14.3720     9.2660 Si            1 RES     
     293 O           39.6090    17.1140     4.7570 O             1 RES     
     294 O           18.9850    23.2030     4.9360 O             1 RES     
     295 O           33.3830    29.5890     8.6530 O             1 RES     
     296 Si           6.5040    34.3540     3.6440 Si            1 RES     
     297 O           10.6390    41.7210    12.3230 O             1 RES     
     298 Si          21.8010    23.4750    10.1490 Si            1 RES     
     299 O           32.1880     2.9370    11.0530 O             1 RES     
     300 O           48.2850    37.1040     8.2830 O             1 RES     
     301 OS          41.0400     2.3510    12.7430 OS            1 RES     
     302 O           21.6560    15.2860     2.4880 O             1 RES     
     303 Si          23.6110    42.4730     6.8000 Si            1 RES     
     304 Si          39.1900    24.7630     8.9630 Si            1 RES     
     305 OS          23.5860    47.4960    12.0860 OS            1 RES     
     306 OS          35.6550    44.6830    12.9390 OS            1 RES     
     307 O           38.8090    10.5150     5.0240 O             1 RES     
     308 Si           7.5450    17.4300    12.2700 Si            1 RES     
     309 O           11.9280    10.0130     4.3980 O             1 RES     
     310 O           47.4460    12.9720    12.0550 O             1 RES     
     311 O           16.4350     1.3450     6.4240 O             1 RES     
     312 Si          10.3130    11.8920    10.4020 Si            1 RES     
     313 O           11.2070    32.3640    13.4470 O             1 RES     
     314 O           23.7810    46.8420     3.9060 O             1 RES     
     315 OS          32.3080    40.5490    13.5250 OS            1 RES     
     316 Si          14.6130    39.8490    10.8620 Si            1 RES     
     317 Si           9.0190     4.2510     4.0900 Si            1 RES     
     318 O           25.1120    14.6520     5.4390 O             1 RES     
     319 Si          44.0140    36.7140     7.7550 Si            1 RES     
     320 OS          48.1550    10.7840    12.7930 OS            1 RES     
     321 OS          14.5800    10.1050    13.9600 OS            1 RES     
     322 OS          30.2540    15.4520    12.2440 OS            1 RES     
     323 O           15.1430    39.4530     9.4470 O             1 RES     
     324 Si          26.1430     3.1790     5.5820 Si            1 RES     
     325 O            0.4530     3.1480     6.2690 O             1 RES     
     326 O           46.8350    49.3910    10.9860 O             1 RES     
     327 O            4.0590    36.5990     8.4880 O             1 RES     
     328 Si          21.9700    14.8470     4.0010 Si            1 RES     
     329 Si           5.4830    21.8870    10.9520 Si            1 RES     
     330 O           12.9610    16.0130    12.0790 O             1 RES     
     331 Si          18.5110    45.7810    11.1700 Si            1 RES     
     332 O           26.1120     6.5300    13.1560 O             1 RES     
     333 O           28.9550    11.6580     3.8450 O             1 RES     
     334 O           16.8570     4.4800     9.5660 O             1 RES     
     335 O           12.2070    31.3180     6.4880 O             1 RES     
     336 Si           3.6610    47.9890     3.2660 Si            1 RES     
     337 O            2.3810    38.3960     9.2630 O             1 RES     
     338 O           16.4770    43.0330     5.4360 O             1 RES     
     339 O            8.4010    37.8400     9.9930 O             1 RES     
     340 Si          35.2360    26.0960     9.8200 Si            1 RES     
     341 OS          41.6370    48.2940    12.0470 OS            1 RES     
     342 O           28.3920    45.5220     9.3080 O             1 RES     
     343 Si           8.7650     9.9060     8.6400 Si            1 RES     
     344 Si          31.1860    40.2060     4.6190 Si            1 RES     
     345 O           33.9620     9.7730    11.3540 O             1 RES     
     346 Si          29.9290    38.9810    11.4220 Si            1 RES     
     347 O           46.4470    45.4640     8.5700 O             1 RES     
     348 O            3.8460    49.6770    12.4230 O             1 RES     
     349 O           11.9350    26.3070    10.1220 O             1 RES     
     350 O           34.7310    37.0780     7.2970 O             1 RES     
     351 O            9.9940    32.7270     3.7510 O             1 RES     
     352 OS          45.7050    12.9940    13.9360 OS            1 RES     
     353 Si          18.4620    19.7870     7.3990 Si            1 RES     
     354 O           11.2240    35.5340     6.4810 O             1 RES     
     355 O           43.9110    10.6470     6.2750 O             1 RES     
     356 O           45.5200    36.9650     7.4450 O             1 RES     
     357 O           42.3600    47.1630     6.9220 O             1 RES     
     358 OS          21.7830    13.9840    12.3470 OS            1 RES     
     359 Si          38.2540    43.6100     8.9210 Si            1 RES     
     360 O            3.3950    11.3600    11.7150 O             1 RES     
     361 Si           6.1610     4.5190     2.9570 Si            1 RES     
     362 Si          35.9990     4.7990     5.4630 Si            1 RES     
     363 O           40.4460     8.8940    11.2490 O             1 RES     
     364 Si          36.3780     8.7640     9.1110 Si            1 RES     
     365 Si           1.8180    27.6390    12.3530 Si            1 RES     
     366 OS          47.8010    37.1470    12.8070 OS            1 RES     
     367 OS          11.1920    45.1340    13.1630 OS            1 RES     
     368 O           48.1120    47.4380    10.4120 O             1 RES     
     369 O           39.5130    20.8610     8.2070 O             1 RES     
     370 O            7.0610     3.7190    13.2660 O             1 RES     
     371 O           26.4280    34.1630    11.4740 O             1 RES     
     372 Si          33.3770     3.5300     3.4640 Si            1 RES     
     373 O           16.2090    28.5900     2.5190 O             1 RES     
     374 O           36.1180    48.2970     8.6890 O             1 RES     
     375 O           46.7490    17.9500     3.0500 O             1 RES     
     376 O           41.6860    42.9810     6.6740 O             1 RES     
     377 O           37.4760    12.5040     5.3120 O             1 RES     
     378 Si          24.7900    13.2300     6.2040 Si            1 RES     
     379 O           38.1530     4.6200    13.3710 O             1 RES     
     380 O            9.6770    32.6350    11.3050 O             1 RES     
     381 Si          33.9690    22.8690     3.4780 Si            1 RES     
     382 O           43.9820    37.9620     9.3120 O             1 RES     
     383 Si          12.2740    34.9140     7.4100 Si            1 RES     
     384 O           25.0010    18.4920    11.1670 O             1 RES     
     385 O            2.7600    24.2130    10.4020 O             1 RES     
     386 O           42.9580    26.1660    11.8200 O             1 RES     
     387 O           45.1440    14.4450    11.7480 O             1 RES     
     388 Si          40.0110    39.8830     8.6920 Si            1 RES     
     389 OS           4.8870    30.6080    12.7110 OS            1 RES     
     390 O           36.7400    29.8300     5.2550 O             1 RES     
     391 Si          16.6150    44.7830     8.8650 Si            1 RES     
     392 O           14.1100    11.8590     9.6930 O             1 RES     
     393 O            2.0850    44.1560     6.4310 O             1 RES     
     394 Si          39.0470    45.4520    11.2560 Si            1 RES     
     395 Si          46.1120    42.6170    10.5030 Si            1 RES     
     396 Si          15.9470     2.3680     7.5480 Si            1 RES     
     397 O            9.2800    23.5000     7.5290 O             1 RES     
     398 OS          40.7000    34.4120    12.2590 OS            1 RES     
     399 OS          37.3970    49.2820    10.3440 OS            1 RES     
     400 O           27.2990     9.9210     4.3170 O             1 RES     
     401 O           47.5000    17.2100     9.6140 O             1 RES     
     402 O           10.7770    40.0520     8.7900 O             1 RES     
     403 Si          24.9320    24.8970     5.9010 Si            1 RES     
     404 Si          46.2280    36.8130    12.7060 Si            1 RES     
     405 OS          17.5710     7.1020    13.6460 OS            1 RES     
     406 O            3.9580    31.7320     3.9260 O             1 RES     
     407 O           30.0340    48.1820     5.4990 O             1 RES     
     408 Si           2.3960     0.3410    12.1610 Si            1 RES     
     409 Si           1.3740    24.8670    10.7920 Si            1 RES     
     410 O           32.8560    14.0160     5.4360 O             1 RES     
     411 O            5.0360    32.8140    11.2680 O             1 RES     
     412 O            4.3950     1.0660     5.6080 O             1 RES     
     413 Si          11.4700    14.6680     9.6650 Si            1 RES     
     414 O           45.4260    12.4360     7.7160 O             1 RES     
     415 Si          39.5160    33.9090    11.3150 Si            1 RES     
     416 O           42.7260    45.9040    11.9400 O             1 RES     
     417 OS          21.7830     5.7500    13.3060 OS            1 RES     
     418 O            3.4140    40.7410     9.3500 O             1 RES     
     419 O           34.3490    32.3610     3.7950 O             1 RES     
     420 O           16.5320    25.6030    11.2150 O             1 RES     
     421 O            8.3430    40.2150     9.8420 O             1 RES     
     422 O            4.0360    25.3720     8.7120 O             1 RES     
     423 O           30.6800    45.8030     9.3590 O             1 RES     
     424 O           10.0900    10.7120     6.1550 O             1 RES     
     425 O           19.1940    17.1920     5.2050 O             1 RES     
     426 O           37.1160    48.2080    12.3700 O             1 RES     
     427 Si          11.3670    16.3290    12.1810 Si            1 RES     
     428 O           35.5170    49.9290     1.5800 O             1 RES     
     429 O            3.1960    13.4610     3.7560 O             1 RES     
     430 O            4.0060    30.3250     6.5690 O             1 RES     
     431 O           39.3020     0.3220     2.5230 O             1 RES     
     432 Si          39.5480    34.3190     5.9030 Si            1 RES     
     433 Si          19.5940    18.6870     4.7920 Si            1 RES     
     434 OS          15.5400    11.8900    12.5810 OS            1 RES     
     435 Si           3.2760    22.0430     6.8940 Si            1 RES     
     436 O            4.7160    44.8320     2.2930 O             1 RES     
     437 Si          16.4430     3.1290    10.4140 Si            1 RES     
     438 O           34.7450    20.4650     6.8190 O             1 RES     
     439 O           42.7410    49.4860     7.9210 O             1 RES     
     440 O            9.6600    25.8890     8.2980 O             1 RES     
     441 Si          14.1900    40.4600     5.9330 Si            1 RES     
     442 O            2.1890     7.9920     5.7940 O             1 RES     
     443 OS          16.4940    21.9160    12.0070 OS            1 RES     
     444 OS           8.7360    23.7110    12.1360 OS            1 RES     
     445 O            9.6740     3.0890     7.3500 O             1 RES     
     446 Si          45.4850     2.3080     9.1260 Si            1 RES     
     447 O           34.5530     1.7420     7.1130 O             1 RES     
     448 Si          47.6950    46.8240     4.1620 Si            1 RES     
     449 O            9.0940    31.8780     9.0570 O             1 RES     
     450 O           32.8540    11.6640    10.2560 O             1 RES     
     451 O           39.9370    12.6720     5.1830 O             1 RES     
     452 O           42.7870     7.5880     3.9020 O             1 RES     
     453 OS          41.5110    44.6970    13.8950 OS            1 RES     
     454 Si           3.5110    26.4870     7.6910 Si            1 RES     
     455 OS          28.0830    19.4000    14.1250 OS            1 RES     
     456 Si          45.3360    48.4560     5.2530 Si            1 RES     
     457 O           15.0890    16.2570    10.7830 O             1 RES     
     458 O            1.7470    25.2300     4.6450 O             1 RES     
     459 O           20.2430    49.6870    11.9420 O             1 RES     
     460 Si           1.9550    42.6290     6.7790 Si            1 RES     
     461 Si          21.5380     3.5220     7.4470 Si            1 RES     
     462 O           17.2980    45.0130    10.2930 O             1 RES     
     463 O           14.1450    39.2150     6.8920 O             1 RES     
     464 O           10.4990    19.3050     7.6740 O             1 RES     
     465 Si          14.9070     7.2060     6.9330 Si            1 RES     
     466 Si          28.6810    25.7310     9.3460 Si            1 RES     
     467 O           35.3300    30.3750     2.9760 O             1 RES     
     468 Si           8.6830    43.2050     7.6990 Si            1 RES     
     469 O           14.0870    29.7210     3.3030 O             1 RES     
     470 O           33.0820    22.8120    10.2330 O             1 RES     
     471 O           47.5190    36.2220     3.8790 O             1 RES     
     472 Si          28.5250     6.5820    10.1990 Si            1 RES     
     473 Si          47.4500    17.4220     4.3660 Si            1 RES     
     474 O           28.1610    15.8470     6.3670 O             1 RES     
     475 OS           1.1650    22.8170    14.2730 OS            1 RES     
     476 O           44.8110     0.9100     8.5730 O             1 RES     
     477 O           18.5750    27.3960     6.6910 O             1 RES     
     478 O           26.1090     3.3020     3.9990 O             1 RES     
     479 Si          42.6060    34.7230     9.4340 Si            1 RES     
     480 Si          45.3720    10.9610     7.0310 Si            1 RES     
     481 O           22.5860    29.5690     3.9380 O             1 RES     
     482 Si          40.2970    31.3540     6.4800 Si            1 RES     
     483 Si           6.0960    33.9830    10.8440 Si            1 RES     
     484 O           12.7440    30.9830     8.8940 O             1 RES     
     485 OS          46.1210     1.2430    12.8700 OS            1 RES     
     486 O           26.2930    30.5420     3.2220 O             1 RES     
     487 O            7.8820    24.5560     9.3200 O             1 RES     
     488 O           27.0360    22.2950     8.3600 O             1 RES     
     489 O           25.2950     0.7040    10.3780 O             1 RES     
     490 Si          24.9280    17.5040     7.8380 Si            1 RES     
     491 O           48.6180     4.1440    10.7340 O             1 RES     
     492 O           25.6520    28.5460     7.8160 O             1 RES     
     493 O           19.8470    24.9840     6.4890 O             1 RES     
     494 Si          41.6370    12.8030    10.9200 Si            1 RES     
     495 Si          35.3520     1.3890    12.1150 Si            1 RES     
     496 Si          46.8970    37.7350     7.7620 Si            1 RES     
     497 O           26.2440     7.4510     2.2640 O             1 RES     
     498 O            5.3780    35.8640     6.8210 O             1 RES     
     499 O           45.1740    27.8150     2.8680 O             1 RES     
     500 Si          43.8770    27.3760    11.5510 Si            1 RES     
     501 Si          12.5270     8.5340     8.2720 Si            1 RES     
     502 O            3.5620    28.0480     7.7900 O             1 RES     
     503 O            5.2150    22.8920     2.7460 O             1 RES     
     504 O           46.5290    22.0670     9.2400 O             1 RES     
     505 Si          13.1480    15.3560     5.0550 Si            1 RES     
     506 O           24.9450    29.7810    11.9010 O             1 RES     
     507 O            0.0590    17.7840     9.3110 O             1 RES     
     508 O           19.1170    13.8090     9.2550 O             1 RES     
     509 O            4.0670    37.3420     4.9070 O             1 RES     
     510 O           36.9140    10.2500     9.4460 O             1 RES     
     511 O           35.5640     6.3480     5.5660 O             1 RES     
     512 OS          29.1860    38.1350    12.6570 OS            1 RES     
     513 Si          31.8730    37.3300     3.6020 Si            1 RES     
     514 O           42.7740     3.8650     8.6890 O             1 RES     
     515 O           49.9610    33.5230     2.2830 O             1 RES     
     516 O           36.2550    26.7060     8.7730 O             1 RES     
     517 Si          14.0130    15.1700    11.1740 Si            1 RES     
     518 O            3.7870    16.7630    12.8830 O             1 RES     
     519 Si          48.5450     5.0490    12.0960 Si            1 RES     
     520 O           40.6880    22.2130     4.0540 O             1 RES     
     521 O           14.5790    32.1970     7.4600 O             1 RES     
     522 O           40.8770    38.5600     8.8240 O             1 RES     
     523 O           24.8340    43.0310     2.6420 O             1 RES     
     524 Si          30.0510    19.2360     5.0320 Si            1 RES     
     525 O           32.2550     8.4950     2.8570 O             1 RES     
     526 O           23.0200    32.1490    12.2200 O             1 RES     
     527 Si           6.2410    43.4290     9.5200 Si            1 RES     
     528 Si          26.1320    27.2990     4.2450 Si            1 RES     
     529 O           39.7030    43.2250     8.3650 O             1 RES     
     530 O            8.5980    46.3720     2.2240 O             1 RES     
     531 Si          34.6490     3.1510     7.7220 Si            1 RES     
     532 O           15.1550    11.3100     5.9300 O             1 RES     
     533 Si           5.3720    10.0700     4.4590 Si            1 RES     
     534 O           42.3490     7.4910    12.1660 O             1 RES     
     535 OS          15.4210    40.4660    12.0290 OS            1 RES     
     536 O            5.0060     4.4480     4.0530 O             1 RES     
     537 O           19.4280    45.2850     5.8050 O             1 RES     
     538 O           44.4440    46.5930    10.0370 O             1 RES     
     539 O           49.3310    32.3570     9.5320 O             1 RES     
     540 O           30.1120    26.0840     8.9200 O             1 RES     
     541 O           10.4160     1.0990     2.8170 O             1 RES     
     542 O            5.6430    34.8800     9.6260 O             1 RES     
     543 O           10.6130    29.6900     9.5080 O             1 RES     
     544 O           38.9430    30.5190     6.3560 O             1 RES     
     545 O           10.5100     8.1880     5.4640 O             1 RES     
     546 O           18.0080    49.7870    12.4920 O             1 RES     
     547 O           29.9750    18.5390     6.4630 O             1 RES     
     548 Si          43.5010     6.3350    12.2980 Si            1 RES     
     549 O           31.0460    33.8030     5.5130 O             1 RES     
     550 O            8.9270    11.8520    11.1040 O             1 RES     
     551 O           22.6540     0.6510     6.3860 O             1 RES     
     552 O           45.1230    32.2190     9.7350 O             1 RES     
     553 O           15.4250     8.6330     6.4840 O             1 RES     
     554 O           24.3040    33.2740     3.2250 O             1 RES     
     555 O           49.8890    13.0660     8.7600 O             1 RES     
     556 Si           8.1590    11.0630     5.8820 Si            1 RES     
     557 Si           9.7230     6.6800    12.0750 Si            1 RES     
     558 Si          28.4790     8.4120     7.7260 Si            1 RES     
     559 Si           0.5120     7.5370    12.0020 Si            1 RES     
     560 O            9.6710     5.6550     4.5980 O             1 RES     
     561 O           47.4550    13.8010     8.3070 O             1 RES     
     562 O           18.8750    25.6890    11.5620 O             1 RES     
     563 Si           9.6420    29.2860     3.6580 Si            1 RES     
     564 O            6.7420    27.7270     7.4510 O             1 RES     
     565 Si           7.3690    11.2960    10.8940 Si            1 RES     
     566 Si          30.6730    32.5360     9.5370 Si            1 RES     
     567 O           12.3410    33.3180     7.6750 O             1 RES     
     568 Si           5.5320    36.0130     8.4250 Si            1 RES     
     569 Si          23.0290    43.0570    11.1760 Si            1 RES     
     570 Si          40.9590     8.1710     7.5530 Si            1 RES     
     571 OS          19.6480    48.2890    13.7740 OS            1 RES     
     572 O           34.4150    22.6970     5.0520 O             1 RES     
     573 O           21.5930     3.0260     9.0560 O             1 RES     
     574 Si          35.2580    14.0110    11.5060 Si            1 RES     
     575 O           15.8700    32.0780     9.6110 O             1 RES     
     576 O           27.1660    18.1990     2.9840 O             1 RES     
     577 O            2.9420    29.6550     4.5650 O             1 RES     
     578 Si          41.6730    43.7280     5.2710 Si            1 RES     
     579 O           39.1920     0.5770     7.9150 O             1 RES     
     580 O           12.7510    19.8360     9.1320 O             1 RES     
     581 O           21.9460    42.2760    10.3200 O             1 RES     
     582 O           14.1980    38.2730     2.9000 O             1 RES     
     583 O           29.3360    32.1020     8.8840 O             1 RES     
     584 O           49.7930    10.4860     8.6050 O             1 RES     
     585 O           26.2920    12.6820     9.6340 O             1 RES     
     586 O            9.8200    25.0990    10.5220 O             1 RES     
     587 Si          27.4390    19.6000     3.5680 Si            1 RES     
     588 O            6.6230    14.8530     6.6910 O             1 RES     
     589 O            8.6230    49.0540    10.4420 O             1 RES     
     590 O           44.8180    26.8060    10.4470 O             1 RES     
     591 O           11.7380     9.5000     1.6330 O             1 RES     
     592 O           47.2400    46.8150     2.7000 O             1 RES     
     593 O           34.5170    24.8560     9.2050 O             1 RES     
     594 O           20.2360     9.1000    10.6340 O             1 RES     
     595 OS          32.3420    21.8730    12.6260 OS            1 RES     
     596 Si          25.7150    41.7100     2.8710 Si            1 RES     
     597 O           34.9960    19.4610     9.2060 O             1 RES     
     598 Si          41.4990    19.5180    11.1150 Si            1 RES     
     599 Si          15.2730    10.2900    12.5260 Si            1 RES     
     600 O           36.2120    18.2560     7.4380 O             1 RES     
     601 O           29.3970    36.5730     9.2700 O             1 RES     
     602 O            5.0300    23.2810    10.2570 O             1 RES     
     603 Si           0.3920    42.2210     4.1890 Si            1 RES     
     604 O            2.2260    26.4020     2.4270 O             1 RES     
     605 O           49.4230    18.8260    12.6940 O             1 RES     
     606 O           27.1160    27.9850     5.1480 O             1 RES     
     607 Si           8.2650    40.9430     4.4180 Si            1 RES     
     608 O           41.1300    22.0980     6.6650 O             1 RES     
     609 O           45.5570    31.9600     4.3400 O             1 RES     
     610 O            0.1660    19.6860     6.1490 O             1 RES     
     611 Si          33.2720     8.2920    11.3850 Si            1 RES     
     612 O           22.7000     0.6170     4.0170 O             1 RES     
     613 O           13.0960    47.7250     5.9260 O             1 RES     
     614 Si          22.7790     1.7000     2.8520 Si            1 RES     
     615 O           16.3630    13.3470     5.6630 O             1 RES     
     616 O           30.9870    48.2450    10.0420 O             1 RES     
     617 O           37.2390    49.7590     3.5030 O             1 RES     
     618 Si          30.8900    16.7310     3.3720 Si            1 RES     
     619 O           26.4990    44.3450     9.2110 O             1 RES     
     620 O           49.2220    26.2600     7.9750 O             1 RES     
     621 O           33.9070    31.6450     7.3760 O             1 RES     
     622 O           43.4510    15.8270    10.1300 O             1 RES     
     623 Si          46.0430    25.0580     5.6030 Si            1 RES     
     624 O            1.8810    26.1950     7.7000 O             1 RES     
     625 O           17.3560     2.2180    11.3970 O             1 RES     
     626 O            7.1550    17.3080     4.0380 O             1 RES     
     627 Si          42.4350    10.2010     5.9260 Si            1 RES     
     628 Si          40.6900     3.0210    11.3890 Si            1 RES     
     629 O           19.3480     0.7980     2.3270 O             1 RES     
     630 O           19.9280    29.8800    10.9250 O             1 RES     
     631 O           19.4570    20.9430     7.8900 O             1 RES     
     632 O           10.7040    13.2600     9.7220 O             1 RES     
     633 Si           0.4770     1.6020     5.9420 Si            1 RES     
     634 O            9.4100     1.3120    10.7100 O             1 RES     
     635 Si          18.7360    17.6360     9.5480 Si            1 RES     
     636 O            5.7520    47.8330    12.9800 O             1 RES     
     637 O           19.8340     7.1440     8.9810 O             1 RES     
     638 Si          18.1230     8.5540     3.6600 Si            1 RES     
     639 Si           8.9940    33.1040    10.0430 Si            1 RES     
     640 O           35.6350    37.2760     4.9160 O             1 RES     
     641 O           43.9320    30.7370     6.0400 O             1 RES     
     642 Si          10.3410    36.8300     3.1460 Si            1 RES     
     643 OS          30.0060    34.1070    13.8750 OS            1 RES     
     644 OS          33.7480    33.1240    13.3250 OS            1 RES     
     645 Si           7.3310    43.7630     4.9050 Si            1 RES     
     646 O           12.4480    23.4040     3.5910 O             1 RES     
     647 O           46.8580    41.0190     2.4920 O             1 RES     
     648 Si          11.1820    20.0760     8.8680 Si            1 RES     
     649 Si          26.8970    32.7770    12.0530 Si            1 RES     
     650 O           31.1770    38.7570     3.8720 O             1 RES     
     651 O           42.7610    36.9040     6.8720 O             1 RES     
     652 O            0.1790    45.8030    11.0080 O             1 RES     
     653 O           14.9690    39.8680     4.7060 O             1 RES     
     654 Si          26.2080    35.7160    11.4330 Si            1 RES     
     655 O           33.8200     1.8110    12.2470 O             1 RES     
     656 O           32.2410    24.6310     8.4590 O             1 RES     
     657 O           44.9250     6.9980    12.2900 O             1 RES     
     658 Si          10.0470     6.9750     9.0140 Si            1 RES     
     659 O            4.9290    13.9990     8.3470 O             1 RES     
     660 Si          23.0970    34.0080     6.9800 Si            1 RES     
     661 O           35.3680    49.2480     6.6070 O             1 RES     
     662 O           38.6330     3.1870     8.2330 O             1 RES     
     663 O            9.6790    38.1050     2.4130 O             1 RES     
     664 O           24.3640    25.9410     9.8980 O             1 RES     
     665 Si           1.3860     4.4330     6.3760 Si            1 RES     
     666 O           36.0720    25.4030    10.9870 O             1 RES     
     667 Si          33.3970     0.4560     4.1020 Si            1 RES     
     668 O           47.7770    45.4010     4.5940 O             1 RES     
     669 O           49.6460     0.9140     7.0600 O             1 RES     
     670 Si          49.7490    42.7510     8.8430 Si            1 RES     
     671 OS          47.7090    20.8010    12.2820 OS            1 RES     
     672 O           21.0710     5.0660     7.7670 O             1 RES     
     673 Si          17.6200     8.2770    12.5210 Si            1 RES     
     674 O           23.8990     8.0890     8.4830 O             1 RES     
     675 O           44.9940     6.8110     5.0230 O             1 RES     
     676 O           38.3840    27.7090     9.6910 O             1 RES     
     677 Si           2.3000    49.5910     9.1770 Si            1 RES     
     678 O           11.0760    17.9080    12.0650 O             1 RES     
     679 Si           2.4870    45.5200     5.7490 Si            1 RES     
     680 O            5.1070    13.1130     2.0220 O             1 RES     
     681 O           17.3130    17.3870    10.0950 O             1 RES     
     682 O           38.8030    18.8680     3.1010 O             1 RES     
     683 O            6.2230     5.3790     1.6200 O             1 RES     
     684 O           33.8930    37.3990    11.2720 O             1 RES     
     685 OS          35.5880    37.9490    13.8270 OS            1 RES     
     686 O           49.2590    31.1290     2.4940 O             1 RES     
     687 Si          30.0550    20.4620     9.8690 Si            1 RES     
     688 O            6.6910    21.9270     4.9560 O             1 RES     
     689 O           17.7340    21.6430     3.5230 O             1 RES     
     690 O           19.7000    45.8050    10.1940 O             1 RES     
     691 O           21.0350    10.2870     8.9720 O             1 RES     
     692 Si           0.3040    11.6260     9.5100 Si            1 RES     
     693 Si          47.8920    39.8850     5.9730 Si            1 RES     
     694 Si          25.8660    44.0270    10.5700 Si            1 RES     
     695 O            3.1940     0.0020     7.9500 O             1 RES     
     696 O           33.6470    34.4260     4.8550 O             1 RES     
     697 Si          30.7270    42.4020     8.4770 Si            1 RES     
     698 Si          34.7700    37.8690     3.8180 Si            1 RES     
     699 O           29.2810    20.1280    11.1720 O             1 RES     
     700 O           18.3850    35.8390     4.7270 O             1 RES     
     701 Si          45.2900    25.8680     9.3100 Si            1 RES     
     702 Si          42.5050    22.3130    10.4510 Si            1 RES     
     703 Si          15.7320    29.5360     3.7050 Si            1 RES     
     704 Si           9.6690    47.8430     5.4930 Si            1 RES     
     705 O           12.3740    48.9220     8.1810 O             1 RES     
     706 O           24.6360     0.9360     7.9300 O             1 RES     
     707 O           19.8080     3.0050     3.2320 O             1 RES     
     708 O           35.4430     0.0010    12.9260 O             1 RES     
     709 O            6.8130    27.9240     9.9120 O             1 RES     
     710 O           36.6000    38.8690     6.7020 O             1 RES     
     711 Si          10.1060    19.0830    11.7060 Si            1 RES     
     712 O           19.5560    15.3870     7.1320 O             1 RES     
     713 O           13.4780    47.4240     3.3610 O             1 RES     
     714 OS          33.1620    11.7520    13.1050 OS            1 RES     
     715 O           22.8730    22.8310    11.1670 O             1 RES     
     716 O           11.8470    21.1590     4.2940 O             1 RES     
     717 Si          21.9760    12.3940    12.3550 Si            1 RES     
     718 O           12.8560     9.6200     9.3420 O             1 RES     
     719 Si          15.5080    38.7700     3.6850 Si            1 RES     
     720 O           37.2780    42.6790     9.7680 O             1 RES     
     721 O            8.5470    10.3990     4.4330 O             1 RES     
     722 O            4.3780    46.6300     8.9120 O             1 RES     
     723 O           29.9050    45.6210     6.1860 O             1 RES     
     724 Si          33.6080    14.0500     6.7690 Si            1 RES     
     725 O            6.9040    14.7780     2.4800 O             1 RES     
     726 O           17.7290    46.9900     5.8550 O             1 RES     
     727 O           13.0630     2.0570     5.8520 O             1 RES     
     728 O           14.9550    20.6690     8.2220 O             1 RES     
     729 O           26.1070    41.4050     4.3750 O             1 RES     
     730 O           26.7350    26.8440     2.9100 O             1 RES     
     731 O           30.0560     2.9350     5.7890 O             1 RES     
     732 O           45.2980    21.2120     4.8160 O             1 RES     
     733 O            9.9770    10.8910     9.1250 O             1 RES     
     734 Si          15.7720    32.3240    11.1840 Si            1 RES     
     735 O           25.9570    32.4380     4.9530 O             1 RES     
     736 O           49.6260    38.0500     4.0950 O             1 RES     
     737 Si          27.7560    22.5190     3.0090 Si            1 RES     
     738 O            6.1310    18.0340    12.6980 O             1 RES     
     739 Si          29.6580    12.5070     4.9570 Si            1 RES     
     740 Si          20.6900     3.4160     4.4270 Si            1 RES     
     741 O           18.0140    37.6140     6.4480 O             1 RES     
     742 Si           7.4400    49.6480     6.7860 Si            1 RES     
     743 O           11.4600    42.1930     3.2080 O             1 RES     
     744 O            7.4840    42.2850     4.2520 O             1 RES     
     745 O           20.4090    41.3470     8.5420 O             1 RES     
     746 O           27.7690    15.8050     3.7780 O             1 RES     
     747 O           20.8050    22.5490     6.6200 O             1 RES     
     748 O           47.1940     9.1690     3.9050 O             1 RES     
     749 OS          43.1990    32.2580    11.8910 OS            1 RES     
     750 OS           2.5250     1.7930    12.7490 OS            1 RES     
     751 O           15.8720    31.1240     3.5680 O             1 RES     
     752 O           36.9670    23.0980    12.0190 O             1 RES     
     753 O           24.6860     5.7720     8.6550 O             1 RES     
     754 Si           3.3320    17.0320     2.8190 Si            1 RES     
     755 O           46.1960    19.5610     9.2260 O             1 RES     
     756 O            4.2990    11.6510     9.3740 O             1 RES     
     757 Si          43.9040    20.4480     4.8120 Si            1 RES     
     758 O           24.8680    35.8760    12.2940 O             1 RES     
     759 O           23.6580    18.9010     3.6840 O             1 RES     
     760 Si          14.1220    37.2970    12.4430 Si            1 RES     
     761 Si          48.3240     3.2150     9.4960 Si            1 RES     
     762 O            8.7600    45.0380    12.2370 O             1 RES     
     763 Si          35.3480    34.2110     9.5120 Si            1 RES     
     764 Si          47.0210     0.0510    12.4420 Si            1 RES     
     765 O           19.9310    33.8980     5.2210 O             1 RES     
     766 O            7.6010    34.5360     2.5650 O             1 RES     
     767 O           41.9330    37.9030     4.7360 O             1 RES     
     768 Si           6.2890    17.4690     9.5750 Si            1 RES     
     769 O           10.2860     1.4390     5.2360 O             1 RES     
     770 O           23.4720    43.8750     7.4750 O             1 RES     
     771 O            6.0160    44.9060     9.1190 O             1 RES     
     772 Si          12.5860     9.9290     3.0050 Si            1 RES     
     773 O            2.3750    15.4810     5.2860 O             1 RES     
     774 O           27.3190    29.2610    12.4900 O             1 RES     
     775 Si           5.0570    13.0090     9.6470 Si            1 RES     
     776 O           18.5420     5.3050     7.9260 O             1 RES     
     777 O           48.6410    43.7890     8.4790 O             1 RES     
     778 O           11.8310    30.9040    11.1600 O             1 RES     
     779 O           35.0670    13.4710     6.3520 O             1 RES     
     780 Si          42.0050    38.9920     3.5840 Si            1 RES     
     781 O            8.0640    40.0100     3.0870 O             1 RES     
     782 Si          28.7100    37.9400     8.8920 Si            1 RES     
     783 Si           1.4570     7.3840     7.0950 Si            1 RES     
     784 O           19.5950    31.6930     6.4870 O             1 RES     
     785 Si          20.2910    10.6330    10.3250 Si            1 RES     
     786 O           49.4830     9.5720     4.3120 O             1 RES     
     787 Si          49.2360    30.9390    10.2300 Si            1 RES     
     788 O           29.8460    41.2250     8.0550 O             1 RES     
     789 Si          19.0220    25.9820     7.4110 Si            1 RES     
     790 O           23.4690    13.3370     9.5400 O             1 RES     
     791 Si          23.9240    24.9980     8.7160 Si            1 RES     
     792 OS          33.2710    37.9530    13.2690 OS            1 RES     
     793 OS          22.4530    21.1830    13.0020 OS            1 RES     
     794 O           25.8540    25.8150     5.0220 O             1 RES     
     795 O           40.4720    31.4740     8.0220 O             1 RES     
     796 Si          49.0790     9.2880     7.9830 Si            1 RES     
     797 OS           6.2560     6.2770    13.5190 OS            1 RES     
     798 Si          34.2060    40.7980     4.4520 Si            1 RES     
     799 O           38.6100    37.7160     3.1690 O             1 RES     
     800 Si           7.0770    20.2490     8.8390 Si            1 RES     
     801 Si          48.9090    46.5840    11.4290 Si            1 RES     
     802 O           38.3370    26.5730     2.7100 O             1 RES     
     803 Si          34.5520     9.9310     7.0270 Si            1 RES     
     804 Si          20.0360    31.2220    10.1190 Si            1 RES     
     805 O            2.8930    22.2920     2.5400 O             1 RES     
     806 Si          27.6670    16.0710     7.8400 Si            1 RES     
     807 O           28.8060    13.8260     5.0430 O             1 RES     
     808 Si          24.8180    12.7050    10.9700 Si            1 RES     
     809 Si          48.9160    33.1910     8.2340 Si            1 RES     
     810 Si          19.3220    38.0950    12.5930 Si            1 RES     
     811 Si           1.9380    35.8990    11.6940 Si            1 RES     
     812 OS          49.5410    47.6210    12.5080 OS            1 RES     
     813 O           45.7460    37.2740    11.2740 O             1 RES     
     814 Si          19.9030    14.9890     8.5670 Si            1 RES     
     815 O           25.7710     4.4830     6.4720 O             1 RES     
     816 O           48.9850    32.2290     4.6010 O             1 RES     
     817 Si          37.7750    39.8480     6.4840 Si            1 RES     
     818 O            8.1810     1.0180     6.6000 O             1 RES     
     819 O            7.9860     9.8280     2.0970 O             1 RES     
     820 Si          29.5330    33.3360     5.4390 Si            1 RES     
     821 O           46.2350    23.4670     5.7550 O             1 RES     
     822 Si          17.2150    28.3100     6.4770 Si            1 RES     
     823 O           23.2530     7.7300     5.9480 O             1 RES     
     824 O           20.2230    41.7250     6.0320 O             1 RES     
     825 Si          14.1060     2.9270    12.3560 Si            1 RES     
     826 O           19.4250    26.0820     8.9530 O             1 RES     
     827 Si           7.2080    48.9900     9.7760 Si            1 RES     
     828 OS          13.0180    37.7460    13.3970 OS            1 RES     
     829 Si          49.0280    16.6680     9.7360 Si            1 RES     
     830 O           38.7140    39.7180     7.7470 O             1 RES     
     831 Si          30.7840    46.8420     5.9520 Si            1 RES     
     832 O           10.4830    29.8580     4.8470 O             1 RES     
     833 O           43.3200    41.9460     1.6670 O             1 RES     
     834 Si          18.2410    12.9120    10.1490 Si            1 RES     
     835 O           10.7840    43.1810    10.3760 O             1 RES     
     836 O           42.2450    42.8690     9.2390 O             1 RES     
     837 Si          28.5000    22.7930     8.3570 Si            1 RES     
     838 O            4.2370    21.0310    10.8790 O             1 RES     
     839 O           31.8450     8.4730    11.9550 O             1 RES     
     840 O           44.0220    22.2570     9.9290 O             1 RES     
     841 Si          39.1410    49.3650     6.8780 Si            1 RES     
     842 Si           5.3790     0.2450     4.5480 Si            1 RES     
     843 O            8.0870    10.3600     7.2540 O             1 RES     
     844 O           29.9120    43.3700     9.5960 O             1 RES     
     845 Si          43.3470    17.3420     9.7490 Si            1 RES     
     846 O           21.2180    38.5560     4.1250 O             1 RES     
     847 Si          46.2780    18.2610    10.0530 Si            1 RES     
     848 O           19.3690    39.5920     7.2420 O             1 RES     
     849 O           47.3990    13.5140     4.6950 O             1 RES     
     850 Si          29.8150    33.5000    12.2720 Si            1 RES     
     851 O           29.7090     4.6080     3.9520 O             1 RES     
     852 O           24.4790     6.5760     3.9720 O             1 RES     
     853 Si          45.4830     0.4720     2.9760 Si            1 RES     
     854 O           42.9600    21.7040     4.9030 O             1 RES     
     855 O           11.2310    19.0010     2.7990 O             1 RES     
     856 Si          30.8700     8.1510     3.5780 Si            1 RES     
     857 Si          10.7240    44.5390     9.5680 Si            1 RES     
     858 O           44.5910     3.2770    10.0920 O             1 RES     
     859 OS          40.6880    12.9890    12.1640 OS            1 RES     
     860 O           23.7620    34.0750     5.5450 O             1 RES     
     861 O           28.5770    19.4320     4.6810 O             1 RES     
     862 Si          48.8450    32.4750     3.0400 Si            1 RES     
     863 O            2.2640    28.7650    11.3580 O             1 RES     
     864 O            8.7090    18.4050    12.0580 O             1 RES     
     865 Si          36.6600    29.8290     3.7120 Si            1 RES     
     866 O           24.6190    21.3980     7.7070 O             1 RES     
     867 Si          39.7760    27.3710    10.4760 Si            1 RES     
     868 OS          48.4250    30.9370    11.5870 OS            1 RES     
     869 O           36.1050     3.2680     8.2910 O             1 RES     
     870 O           12.4430     1.3040     8.2790 O             1 RES     
     871 Si          33.4360    16.4340    10.8380 Si            1 RES     
     872 Si          30.7530     4.1730     5.0870 Si            1 RES     
     873 O            6.1070    38.0600     5.8620 O             1 RES     
     874 O           38.6680    36.4770     8.9480 O             1 RES     
     875 Si          11.1630     9.6020     5.7720 Si            1 RES     
     876 Si          40.3730    14.4940     8.7190 Si            1 RES     
     877 O           49.6810    32.3530     7.0340 O             1 RES     
     878 O           14.2170    22.5440    13.1760 O             1 RES     
     879 O           33.6960    15.5260     7.1440 O             1 RES     
     880 O           34.6540    49.6130     3.8450 O             1 RES     
     881 O            0.6790    30.3410     5.3820 O             1 RES     
     882 Si          19.0850    48.6460    12.2470 Si            1 RES     
     883 Si          22.1510     2.9900    10.5480 Si            1 RES     
     884 O            2.4910    18.3390     2.9200 O             1 RES     
     885 Si          46.3210    41.5570     3.9180 Si            1 RES     
     886 O           35.5150    12.7300     1.6720 O             1 RES     
     887 O           20.6750    35.7400     9.5880 O             1 RES     
     888 O           44.1660    26.3470     8.2340 O             1 RES     
     889 Si           0.5010    25.4290     7.9210 Si            1 RES     
     890 O           25.2210    39.4880     5.9300 O             1 RES     
     891 OS          46.3090    35.2350    12.6710 OS            1 RES     
     892 O           19.1550     7.3510     3.9290 O             1 RES     
     893 O           24.3180    25.4750     7.2570 O             1 RES     
     894 O           44.5330    42.4470    10.6150 O             1 RES     
     895 O           32.8890    37.2560     8.9580 O             1 RES     
     896 OS           1.4300     7.6250    13.2710 OS            1 RES     
     897 Si          10.0770    18.5520     6.3800 Si            1 RES     
     898 Si          15.4110    12.2030     8.9330 Si            1 RES     
     899 Si          23.5250    22.0570    12.3530 Si            1 RES     
     900 O           32.6580    29.0700    10.7970 O             1 RES     
     901 O           18.9780    11.5120    10.0640 O             1 RES     
     902 OS          25.6930    19.3670    13.4870 OS            1 RES     
     903 O           42.1530     9.8200     4.4030 O             1 RES     
     904 OS          31.5440    17.1520    13.7880 OS            1 RES     
     905 O           18.3820     7.7760    11.1990 O             1 RES     
     906 Si          19.9120    25.9010    10.4390 Si            1 RES     
     907 Si          21.2670    39.6860     3.0300 Si            1 RES     
     908 O           10.3610    44.5950     2.8460 O             1 RES     
     909 O           19.7400    45.9700     3.4200 O             1 RES     
     910 Si          18.8430    10.6020     5.8770 Si            1 RES     
     911 O           11.3070    24.0840     8.6510 O             1 RES     
     912 O            8.0970    29.2030     4.1690 O             1 RES     
     913 O           33.8360    10.8010     2.9710 O             1 RES     
     914 O            1.1100    20.6060     3.1090 O             1 RES     
     915 Si          46.7980    20.7630     8.3390 Si            1 RES     
     916 O           12.9400    38.4750     8.8170 O             1 RES     
     917 Si          29.6600    44.8580    10.0510 Si            1 RES     
     918 O           11.2120    15.4640     8.3510 O             1 RES     
     919 Si          39.6190     2.0610     8.6460 Si            1 RES     
     920 O           19.3910    39.6610    12.7410 O             1 RES     
     921 O           47.5620     7.4470     5.5700 O             1 RES     
     922 Si          39.2700    36.7440    10.3940 Si            1 RES     
     923 O           43.0340    18.0030     8.3440 O             1 RES     
     924 Si          31.7660     6.8110     9.2550 Si            1 RES     
     925 O            2.4310    20.7180     6.6690 O             1 RES     
     926 Si          41.7730    44.6900    12.3280 Si            1 RES     
     927 O           28.3720    33.8490     7.0030 O             1 RES     
     928 OS          12.9090    27.3060    12.5350 OS            1 RES     
     929 Si           4.1990     5.0560    10.8450 Si            1 RES     
     930 O           39.9540     5.4880     5.1340 O             1 RES     
     931 Si           2.1290    14.5270     4.0690 Si            1 RES     
     932 Si          23.8080     8.7590     7.0580 Si            1 RES     
     933 O           15.0930     0.7780     4.4410 O             1 RES     
     934 O           34.8950     4.1750     6.5650 O             1 RES     
     935 OS          34.3920    29.4680    12.5620 OS            1 RES     
     936 O            3.3300    22.7720     8.3380 O             1 RES     
     937 O           18.1330     9.5050     2.4330 O             1 RES     
     938 O           12.2920    44.5360     9.1110 O             1 RES     
     939 O            6.9350    20.8710     7.3810 O             1 RES     
     940 Si           8.2440    37.4110     8.3920 Si            1 RES     
     941 OS          25.8330    15.4440    13.8280 OS            1 RES     
     942 Si          13.5490    34.3190    11.9030 Si            1 RES     
     943 Si          19.7110     7.5830    10.4450 Si            1 RES     
     944 Si          28.6080    15.3720     4.9640 Si            1 RES     
     945 O           39.9930     4.1720     3.0720 O             1 RES     
     946 Si          25.0340    32.0940     8.5620 Si            1 RES     
     947 O           43.6290    33.2150     5.0040 O             1 RES     
     948 Si          11.3430    41.5240     4.6710 Si            1 RES     
     949 Si          27.0130    13.1390     8.3330 Si            1 RES     
     950 Si          48.9600    13.6160     4.9470 Si            1 RES     
     951 O           26.9220    29.1920     9.9540 O             1 RES     
     952 Si           6.3490    26.5680     6.4490 Si            1 RES     
     953 O           26.2180     3.1580    10.9840 O             1 RES     
     954 O           33.2120    16.3800     9.3320 O             1 RES     
     955 OS           6.4260    34.7250    12.1420 OS            1 RES     
     956 O           19.1830    48.4110     2.8480 O             1 RES     
     957 Si           2.8540    46.5740     8.6460 Si            1 RES     
     958 O           40.5630    35.5950     5.7950 O             1 RES     
     959 O           33.2630    10.6490     7.6910 O             1 RES     
     960 O           44.8170    49.4930     6.4370 O             1 RES     
     961 O           15.8050     0.2400    11.7960 O             1 RES     
     962 Si          29.1690    40.2680     6.9740 Si            1 RES     
     963 O           24.2300    32.0940     9.9360 O             1 RES     
     964 OS          36.0060    14.0500    12.9430 OS            1 RES     
     965 Si           4.1400    31.8930    12.2360 Si            1 RES     
     966 O           13.9600    35.7890    11.8600 O             1 RES     
     967 O           10.1560    17.0980     6.7790 O             1 RES     
     968 O           31.4100    38.4720    11.0010 O             1 RES     
     969 O           16.3110     9.1870    12.1930 O             1 RES     
     970 O           49.7160     6.1130    11.9960 O             1 RES     
     971 Si          46.2190     6.7850     6.0930 Si            1 RES     
     972 O           49.4500     8.6740    12.1600 O             1 RES     
     973 O            0.5590    24.8310     9.4250 O             1 RES     
     974 O           31.0190    12.8100     4.2520 O             1 RES     
     975 O           42.5120    13.8110     3.3200 O             1 RES     
     976 O           44.9820    35.0040     3.9540 O             1 RES     
     977 Si          47.8900    40.3320     9.3920 Si            1 RES     
     978 OS          40.7650    19.2600    12.4870 OS            1 RES     
     979 O           49.3310    34.6780     8.0710 O             1 RES     
     980 O            6.5610     9.2230     3.8240 O             1 RES     
     981 O           34.6850    12.5290    11.3780 O             1 RES     
     982 Si          24.1050    39.4900    10.4800 Si            1 RES     
     983 O           33.2570     0.2650     5.6660 O             1 RES     
     984 O           22.7900     9.8900     7.1890 O             1 RES     
     985 O           32.6950    35.6060     6.7950 O             1 RES     
     986 OS           5.9340    28.2390    12.2320 OS            1 RES     
     987 O           29.9530    15.9870     4.5410 O             1 RES     
     988 Si          45.8740    13.8780     8.0790 Si            1 RES     
     989 O           43.1760    24.2670    13.5710 O             1 RES     
     990 O           34.1640    17.8210    10.9570 O             1 RES     
     991 Si          49.1160    20.2060    11.9690 Si            1 RES     
     992 O           15.7400    10.8380     8.1330 O             1 RES     
     993 Si           5.7440    46.3750     9.5310 Si            1 RES     
     994 O           38.2740    24.3050    10.1730 O             1 RES     
     995 O           43.1520     1.7600     6.8610 O             1 RES     
     996 O           24.4440    16.8930     9.2070 O             1 RES     
     997 Si          47.1230    44.1060     8.0430 Si            1 RES     
     998 Si          32.3110    13.8020     4.0170 Si            1 RES     
     999 O           27.0840     0.2090     8.7460 O             1 RES     
    1000 Si          42.5260    24.7440    12.2770 Si            1 RES     
    1001 O           48.5480     9.5350     6.5140 O             1 RES     
    1002 O           32.0830     5.2400     9.5810 O             1 RES     
    1003 Si          30.7770     6.9750     6.3810 Si            1 RES     
    1004 O           32.6560    17.3460     3.5770 O             1 RES     
    1005 Si          22.9830    46.9500     5.2330 Si            1 RES     
    1006 Si          10.7820    22.8880     7.5800 Si            1 RES     
    1007 O           37.9150    35.4680     2.4360 O             1 RES     
    1008 Si          28.5620    10.2560     3.2980 Si            1 RES     
    1009 O           39.5970     8.4610     6.8880 O             1 RES     
    1010 OS          28.0860    27.0470    12.8440 OS            1 RES     
    1011 Si          12.4540     0.0520     9.2110 Si            1 RES     
    1012 OS          46.1330    18.2330    11.5320 OS            1 RES     
    1013 O           25.1730     9.3400     6.4250 O             1 RES     
    1014 O           33.3330    44.0330    10.0310 O             1 RES     
    1015 O           41.8390    24.0760     5.2260 O             1 RES     
    1016 Si          37.3600    17.2670     7.9960 Si            1 RES     
    1017 Si          28.2610    28.7300     5.8670 Si            1 RES     
    1018 Si          30.2820     8.1480    12.0040 Si            1 RES     
    1019 O            3.8730     2.3210     7.7110 O             1 RES     
    1020 OS           9.8770    49.4910    12.5530 OS            1 RES     
    1021 O           14.0220    10.2330    11.5570 O             1 RES     
    1022 Si          22.5800    13.5060     8.3100 Si            1 RES     
    1023 O           49.1180     1.8730     9.3660 O             1 RES     
    1024 Si          48.9490    14.0960     8.0240 Si            1 RES     
    1025 Si          46.8790     3.8960     6.8860 Si            1 RES     
    1026 O           35.4650    32.8620     6.0240 O             1 RES     
    1027 O           27.1510    37.9040     8.7450 O             1 RES     
    1028 Si          17.7620    23.1290     3.9820 Si            1 RES     
    1029 O           26.4320    17.0710     7.9550 O             1 RES     
    1030 OS          23.7870    28.9780    13.9750 OS            1 RES     
    1031 O           14.9030    22.0870     6.1110 O             1 RES     
    1032 O           16.5420    43.3890     8.1150 O             1 RES     
    1033 O            0.9190    22.9880     4.2150 O             1 RES     
    1034 Si          17.7200    13.2740     4.9340 Si            1 RES     
    1035 O            5.1420    42.4580     8.9610 O             1 RES     
    1036 O           34.5830     8.8080     5.8920 O             1 RES     
    1037 O            0.6930    22.6550     1.5560 O             1 RES     
    1038 O           27.9120    44.4110     6.9660 O             1 RES     
    1039 Si          48.7060    12.1020    12.1750 Si            1 RES     
    1040 O           40.0080     4.3710    11.6840 O             1 RES     
    1041 O           18.3840    14.6960     5.1130 O             1 RES     
    1042 O            5.2630    46.3220    11.0400 O             1 RES     
    1043 O           47.8390    21.1070     5.3680 O             1 RES     
    1044 Si          26.3970    15.0080    12.4620 Si            1 RES     
    1045 O           42.3170    26.3140     6.2530 O             1 RES     
    1046 O           25.3350     7.2390    10.7060 O             1 RES     
    1047 Si          31.4810    26.0880     8.1040 Si            1 RES     
    1048 O           49.2420    36.2610     5.9950 O             1 RES     
    1049 O           46.9280     2.4810     9.7930 O             1 RES     
    1050 O           36.5390    30.8970     7.4160 O             1 RES     
    1051 O           32.5680    21.7720     6.0700 O             1 RES     
    1052 O            1.2920    19.6120     8.2810 O             1 RES     
    1053 O           24.1240    12.2340     5.0580 O             1 RES     
    1054 Si           3.8400     3.8590     8.0030 Si            1 RES     
    1055 Si           2.7330     7.5870     9.8720 Si            1 RES     
    1056 O            7.5060    25.9090    11.4880 O             1 RES     
    1057 Si           8.4160    24.7610     7.8710 Si            1 RES     
    1058 OS           1.2370    16.9980    13.2580 OS            1 RES     
    1059 O           14.4070     2.7210     7.7180 O             1 RES     
    1060 O           25.0570    40.4720    11.2770 O             1 RES     
    1061 O           21.3450    31.9200     4.4470 O             1 RES     
    1062 Si          11.9350    39.3810     9.6200 Si            1 RES     
    1063 Si          12.9040     2.3990     7.3500 Si            1 RES     
    1064 O           34.6530     4.1580     4.0910 O             1 RES     
    1065 Si          20.6580    32.5660     5.7020 Si            1 RES     
    1066 O            9.9550     6.7670    10.5320 O             1 RES     
    1067 O            6.3270    49.7210     5.6860 O             1 RES     
    1068 O           28.0230    23.1170     4.3880 O             1 RES     
    1069 Si          13.5940     1.3770     4.4050 Si            1 RES     
    1070 O           26.0460    12.7870     7.0520 O             1 RES     
    1071 Si           8.1330    39.0510    11.0320 Si            1 RES     
    1072 O           29.3400     0.0210     9.9030 O             1 RES     
    1073 OS          20.6290    19.5290    12.8240 OS            1 RES     
    1074 O           46.3110    16.6070     5.0460 O             1 RES     
    1075 O           35.1690     9.0720     8.2150 O             1 RES     
    1076 O           22.7640    36.2150    10.5800 O             1 RES     
    1077 O           21.7240     4.2780    11.3080 O             1 RES     
    1078 O           30.1630    19.2540     8.8420 O             1 RES     
    1079 Si          15.8320    17.6140    10.7090 Si            1 RES     
    1080 O           49.4760    39.6740     5.8810 O             1 RES     
    1081 O           17.5210    13.0590     3.3260 O             1 RES     
    1082 Si          13.2090    43.8680     5.5150 Si            1 RES     
    1083 O           36.7560    28.3420     3.2740 O             1 RES     
    1084 O            0.1930     8.2110     7.5440 O             1 RES     
    1085 O           40.9160     8.9220     9.0310 O             1 RES     
    1086 Si          35.5870    48.5000    12.5270 Si            1 RES     
    1087 OS          32.5230    30.9610    12.8910 OS            1 RES     
    1088 Si          26.3850    30.8540     4.7940 Si            1 RES     
    1089 Si          21.2500     0.8260    12.5180 Si            1 RES     
    1090 O           27.9370    28.7950     7.4510 O             1 RES     
    1091 Si          32.3110     1.7010    11.9900 Si            1 RES     
    1092 O           20.8080     3.1280     6.0350 O             1 RES     
    1093 O           40.3960    19.4270    10.0400 O             1 RES     
    1094 O            8.1620    44.6540     3.9810 O             1 RES     
    1095 O           31.2400    47.1840     7.4300 O             1 RES     
    1096 O           23.7120     2.8520    10.9510 O             1 RES     
    1097 Si          21.9530    49.8670     5.1650 Si            1 RES     
    1098 O           28.4080    32.9060    12.4150 O             1 RES     
    1099 Si           2.6000    39.6720    10.1250 Si            1 RES     
    1100 Si          14.2540    20.1500     9.5970 Si            1 RES     
    1101 Si          33.7110    11.3420    11.5940 Si            1 RES     
    1102 O            2.3200    36.0940    10.2110 O             1 RES     
    1103 Si          33.6340    36.2480     7.9020 Si            1 RES     
    1104 OS          10.7800     5.6640    12.5930 OS            1 RES     
    1105 O           24.1490    43.2310    10.0890 O             1 RES     
    1106 O           43.1390    28.5830    10.8060 O             1 RES     
    1107 O           47.2410     5.9820    11.9870 O             1 RES     
    1108 Si          13.1380    10.7930    10.3950 Si            1 RES     
    1109 O           17.1380    33.0670    11.5390 O             1 RES     
    1110 Si          26.4910    29.8150    11.3490 Si            1 RES     
    1111 O           18.5480    12.0030     5.4170 O             1 RES     
    1112 O           31.5450    35.9710     4.5650 O             1 RES     
    1113 Si           0.7740    47.0520     3.7350 Si            1 RES     
    1114 O            2.5520     7.5940     3.3250 O             1 RES     
    1115 Si          45.9920    32.1560     8.3110 Si            1 RES     
    1116 O           44.3380    46.0900     7.4270 O             1 RES     
    1117 Si          43.0130    29.5670     5.5960 Si            1 RES     
    1118 Si          43.2570     4.0900    10.1390 Si            1 RES     
    1119 O            6.7530    10.6080    12.1240 O             1 RES     
    1120 Si          27.4220     3.6870    10.1520 Si            1 RES     
    1121 O           20.0630    39.6790     1.9350 O             1 RES     
    1122 O           17.8060     0.4220     4.2120 O             1 RES     
    1123 O           38.2740     6.0910    11.2360 O             1 RES     
    1124 O            4.5930    39.7580     5.1360 O             1 RES     
    1125 Si          28.9100     1.9180     6.1170 Si            1 RES     
    1126 O           11.7560     6.7500     4.0410 O             1 RES     
    1127 Si          24.7800    37.9610     5.9250 Si            1 RES     
    1128 O            9.0370     8.2650     8.6630 O             1 RES     
    1129 O           24.0770    12.4170     2.5300 O             1 RES     
    1130 O           37.7560    32.9340     2.4400 O             1 RES     
    1131 OS           4.5950    49.1400    14.5170 OS            1 RES     
    1132 O           24.6140    21.0140    11.8510 O             1 RES     
    1133 O           22.9150    25.2500     2.6540 O             1 RES     
    1134 O           10.7970    47.4620     6.5500 O             1 RES     
    1135 Si          21.8370    41.1810     9.1520 Si            1 RES     
    1136 O            9.1480     7.9230     3.5290 O             1 RES     
    1137 Si          40.5370     9.9940    10.0790 Si            1 RES     
    1138 O            5.7350     5.3190    11.2190 O             1 RES     
    1139 O            1.9570    38.9090     4.9630 O             1 RES     
    1140 O           39.2870    40.1540    10.0700 O             1 RES     
    1141 O            3.8470    17.0590     4.3490 O             1 RES     
    1142 O           17.8950    41.6230     7.1700 O             1 RES     
    1143 Si          41.1600    32.1080     9.2800 Si            1 RES     
    1144 Si           7.5300    18.7090     4.5500 Si            1 RES     
    1145 O           39.2430    10.7900     9.7430 O             1 RES     
    1146 O           38.8950    14.7690     9.3090 O             1 RES     
    1147 Si          32.5590    37.3940    10.4550 Si            1 RES     
    1148 O           36.1270    46.5280     6.8370 O             1 RES     
    1149 O           35.6710     7.5290     3.6010 O             1 RES     
    1150 Si          41.2410     5.5420     6.0670 Si            1 RES     
    1151 O           44.3530    47.2570     5.2990 O             1 RES     
    1152 O           21.0960    11.5510    11.3260 O             1 RES     
    1153 O           36.3140    47.7270     2.8030 O             1 RES     
    1154 Si           3.2690     7.8770     4.6890 Si            1 RES     
    1155 Si          44.3260    32.8360    10.9620 Si            1 RES     
    1156 O            5.9080    44.4830     4.7470 O             1 RES     
    1157 O           37.8670    48.5510     6.9750 O             1 RES     
    1158 Si          47.7890    29.7170     7.8140 Si            1 RES     
    1159 O           10.5360    45.8010    10.8160 O             1 RES     
    1160 O           30.0420     6.9110     3.1560 O             1 RES     
    1161 O           29.3280    25.3040     5.3200 O             1 RES     
    1162 O            2.6590     4.1220     4.7300 O             1 RES     
    1163 O            3.6920    39.0040     2.9030 O             1 RES     
    1164 O           46.0630     7.6860    10.0550 O             1 RES     
    1165 Si          42.8980    39.7550    11.7930 Si            1 RES     
    1166 Si          44.6300    32.1160     5.5620 Si            1 RES     
    1167 Si           6.6730    28.6420     4.1830 Si            1 RES     
    1168 O           35.2920    12.1580     4.2350 O             1 RES     
    1169 O           23.1660    15.8090     4.5290 O             1 RES     
    1170 OS          36.2370    33.6100    13.1820 OS            1 RES     
    1171 O            7.7920    19.5000     3.2450 O             1 RES     
    1172 Si          39.0220    39.1650     3.7950 Si            1 RES     
    1173 O           38.6900    39.3440     5.2950 O             1 RES     
    1174 Si          20.5840    46.4850     9.0350 Si            1 RES     
    1175 Si          26.1220     6.8770     3.7100 Si            1 RES     
    1176 O           20.6050    27.2480    10.9330 O             1 RES     
    1177 O           42.4750    43.0040     4.0240 O             1 RES     
    1178 O           48.6060    16.6050     3.7510 O             1 RES     
    1179 OS          31.7590    28.7610    13.1040 OS            1 RES     
    1180 O           17.4440    10.2380     6.5740 O             1 RES     
    1181 O           29.8050     9.3610     3.5760 O             1 RES     
    1182 O           24.9300     2.2730     5.9240 O             1 RES     
    1183 O           28.3520    10.3970     1.7180 O             1 RES     
    1184 O           45.0480    49.2860     3.9300 O             1 RES     
    1185 O           48.9510    41.4400     9.0160 O             1 RES     
    1186 Si          23.2200    44.8880     8.7860 Si            1 RES     
    1187 O           46.5110    30.6330     8.0910 O             1 RES     
    1188 Si           2.9310    20.3950    11.4460 Si            1 RES     
    1189 O           37.0440    36.4570     7.0990 O             1 RES     
    1190 OS          23.2340    45.3400    13.3730 OS            1 RES     
    1191 Si           4.5790    17.8720    12.0130 Si            1 RES     
    1192 O           31.9420    31.6430     9.0490 O             1 RES     
    1193 Si          20.8980    21.6300     7.9010 Si            1 RES     
    1194 O           20.6810    24.5750    10.5290 O             1 RES     
    1195 Si          49.8680    39.7510    11.6200 Si            1 RES     
    1196 O           46.8890    41.2540    10.2250 O             1 RES     
    1197 Si          41.9310    29.5470    10.6970 Si            1 RES     
    1198 O            0.9740     5.9620     6.5700 O             1 RES     
    1199 O           15.6560    34.3010     8.0550 O             1 RES     
    1200 O           11.1760    49.7570    10.1540 O             1 RES     
    1201 O           16.9850    20.3870     6.9930 O             1 RES     
    1202 O           21.1540    22.3680     9.2110 O             1 RES     
    1203 Si           7.0370     4.9610    12.2210 Si            1 RES     
    1204 O            9.8820    35.6720     2.0770 O             1 RES     
    1205 O            2.4470     0.3440    10.6000 O             1 RES     
    1206 Si          34.4530    45.6960    12.7250 Si            1 RES     
    1207 O           35.4760     0.9680    10.6270 O             1 RES     
    1208 O           38.3100    16.9160     6.8450 O             1 RES     
    1209 Si          49.5990    10.9130     3.3680 Si            1 RES     
    1210 O           30.3820    40.4390    11.8390 O             1 RES     
    1211 O            2.3780    48.0490     9.1800 O             1 RES     
    1212 O           11.9200    35.5030     8.8340 O             1 RES     
    1213 Si          11.6610    42.2820    11.3350 Si            1 RES     
    1214 O           16.2840     2.2140     9.1100 O             1 RES     
    1215 O           28.8800    23.1380     6.8910 O             1 RES     
    1216 Si          15.1530     8.2330     3.0780 Si            1 RES     
    1217 O           37.6080    16.6840     3.1480 O             1 RES     
    1218 O           16.5280    23.4710     4.8550 O             1 RES     
    1219 O            2.0400    19.3430    10.6480 O             1 RES     
    1220 O           26.6770    32.2300     8.4070 O             1 RES     
    1221 O           34.8490    45.1810     8.5100 O             1 RES     
    1222 O           44.2890    39.3050    11.3820 O             1 RES     
    1223 O           33.8490    20.4930    11.2560 O             1 RES     
    1224 O           22.5550    39.5800     2.1820 O             1 RES     
    1225 O           42.6690    41.1440    11.1220 O             1 RES     
    1226 O            1.5370    26.3480    11.4820 O             1 RES     
    1227 O           31.1460    46.0030     2.2060 O             1 RES     
    1228 O            6.7110    37.0250     8.4600 O             1 RES     
    1229 O           40.4520    26.0420     4.4160 O             1 RES     
    1230 Si           1.4310    29.3570     4.3530 Si            1 RES     
    1231 Si          29.4410    44.1440     6.3630 Si            1 RES     
    1232 Si          34.5620    37.2000    12.6940 Si            1 RES     
    1233 O           15.4150    17.9690     3.7480 O             1 RES     
    1234 O           48.6890    29.9460     9.1440 O             1 RES     
    1235 Si          19.7040    35.1190     4.3010 Si            1 RES     
    1236 Si           9.2350    40.2780     8.5050 Si            1 RES     
    1237 O           10.1700    22.6780     3.4770 O             1 RES     
    1238 O           28.0260    48.4980     3.9550 O             1 RES     
    1239 Si          10.2590     7.0960     4.3300 Si            1 RES     
    1240 Si          10.7680     0.3680     4.1590 Si            1 RES     
    1241 O            7.4330    33.4430    10.3300 O             1 RES     
    1242 O           37.5930    12.8270     9.0240 O             1 RES     
    1243 O           39.2760    49.7930     5.2960 O             1 RES     
    1244 Si          40.4220    22.1860     8.0240 Si            1 RES     
    1245 O           41.5440    30.2860     5.8490 O             1 RES     
    1246 Si          15.1180    23.4980     5.5180 Si            1 RES     
    1247 O           37.2250    44.6220     8.1630 O             1 RES     
    1248 Si          37.4620    29.9450     6.6480 Si            1 RES     
    1249 O           28.2940     2.3970     9.6980 O             1 RES     
    1250 Si          49.9060    16.3460     2.8790 Si            1 RES     
    1251 O            2.1370    21.5170    12.1680 O             1 RES     
    1252 O           43.6060    34.1830    10.4770 O             1 RES     
    1253 Si          40.0440    22.8680     2.7750 Si            1 RES     
    1254 Si          30.3540    49.4740    11.0060 Si            1 RES     
    1255 O           10.4660    28.0500     3.3230 O             1 RES     
    1256 O           43.5030    29.4090     4.0760 O             1 RES     
    1257 O           12.3350    34.3870    10.9070 O             1 RES     
    1258 Si          30.2830    35.4870    10.0540 Si            1 RES     
    1259 O            1.5180     7.7760    10.8100 O             1 RES     
    1260 OS          13.9350    48.6380    12.4890 OS            1 RES     
    1261 O           11.8470    15.4370     5.8870 O             1 RES     
    1262 Si          36.3330    41.9210    10.7280 Si            1 RES     
    1263 Si          35.4250    49.3560     9.7630 Si            1 RES     
    1264 O           20.1260    10.3950     6.6900 O             1 RES     
    1265 O           42.1540     3.4420    10.9540 O             1 RES     
    1266 OS          48.7590     4.2680    13.4230 OS            1 RES     
    1267 O           34.3070    45.7400    11.1810 O             1 RES     
    1268 Si          28.9580    19.7090    12.6810 Si            1 RES     
    1269 O           13.5450     2.5430     3.3690 O             1 RES     
    1270 Si          10.8420    26.5980     2.8430 Si            1 RES     
    1271 Si          20.2770    23.7320     5.6520 Si            1 RES     
    1272 Si          14.4350    38.4700     8.2500 Si            1 RES     
    1273 O           14.3810    38.4590    11.4540 O             1 RES     
    1274 Si          40.9010     7.9910    12.3730 Si            1 RES     
    1275 Si           4.0140    12.4090     2.8490 Si            1 RES     
    1276 O           46.4900     5.3760     6.6270 O             1 RES     
    1277 O           43.7220     5.6280     2.8890 O             1 RES     
    1278 O            9.7740     8.0690    12.8280 O             1 RES     
    1279 O           11.2780    22.8880     6.1010 O             1 RES     
    1280 Si          34.9060    19.1140     7.6960 Si            1 RES     
    1281 O           14.3030     7.0030     3.5270 O             1 RES     
    1282 O            7.6360     4.7540     3.4860 O             1 RES     
    1283 O            1.1770    36.5940     7.9670 O             1 RES     
    1284 Si          41.8900    36.6090     5.6030 Si            1 RES     
    1285 Si           8.3270    24.6850    10.8860 Si            1 RES     
    1286 Si          48.5580    37.0190     4.7550 Si            1 RES     
    1287 O           18.0280    24.1480     2.7820 O             1 RES     
    1288 O           38.2120    40.3700     3.1680 O             1 RES     
    1289 O           13.2290    18.9340     4.1960 O             1 RES     
    1290 O            1.5240    42.1600     5.3490 O             1 RES     
    1291 O           34.2080    41.4020     2.9950 O             1 RES     
    1292 O            9.9340    30.2440     7.3410 O             1 RES     
    1293 O            2.0630    15.5610     2.9380 O             1 RES     
    1294 Si          27.0240    28.3330     8.6310 Si            1 RES     
    1295 OS          38.5380    40.3870    12.5310 OS            1 RES     
    1296 O           35.8430     5.7330    11.5410 O             1 RES     
    1297 O           27.5350     2.5990     5.9240 O             1 RES     
    1298 Si          43.6470     6.3850     4.3100 Si            1 RES     
    1299 O           42.4490    45.0810     5.6010 O             1 RES     
    1300 O           38.6840    34.5900     7.1850 O             1 RES     
    1301 Si          43.7680    26.7680     6.7440 Si            1 RES     
    1302 O           47.2250    26.1170     2.2900 O             1 RES     
    1303 O            4.9090    17.5310    10.4690 O             1 RES     
    1304 O           28.7750     5.2600     1.7050 O             1 RES     
    1305 Si          31.4390    21.9590     5.0050 Si            1 RES     
    1306 Si          21.4930    10.7350     7.5580 Si            1 RES     
    1307 O           13.9710     6.4620     5.8890 O             1 RES     
    1308 O           33.0330    13.1450     8.0570 O             1 RES     
    1309 Si          34.9240    33.4730     4.7240 Si            1 RES     
    1310 OS          26.3210    32.7020    13.5690 OS            1 RES     
    1311 Si          31.5440    41.4570    12.4750 Si            1 RES     
    1312 O           25.4890    13.7300    12.0520 O             1 RES     
    1313 Si          41.1940    25.4280     5.6740 Si            1 RES     
    1314 Si          25.0190    33.6200     4.5810 Si            1 RES     
    1315 O           25.8520    37.3180     4.9610 O             1 RES     
    1316 O           26.2680    22.5560     2.5550 O             1 RES     
    1317 O           33.7020     3.5210     8.8710 O             1 RES     
    1318 Si          49.5320    36.2110     7.5480 Si            1 RES     
    1319 O            7.9020    12.8950     5.8120 O             1 RES     
    1320 Si          32.6620    21.5750    11.0900 Si            1 RES     
    1321 Si          41.8410    37.7970     9.8630 Si            1 RES     
    1322 O           24.8970    38.6820     9.4090 O             1 RES     
    1323 O           19.4320    30.9940     8.6450 O             1 RES     
    1324 O           23.0340     6.4600    10.7360 O             1 RES     
    1325 Si           6.1230    21.0220     6.0700 Si            1 RES     
    1326 O           26.2580     7.8970     4.8800 O             1 RES     
    1327 O           24.7020    27.8820     4.0000 O             1 RES     
    1328 O            6.7870    43.4910    11.0880 O             1 RES     
    1329 O            4.7200    26.2960     6.7230 O             1 RES     
    1330 O           37.7030    28.5370     7.3720 O             1 RES     
    1331 O           34.9560    33.9470    11.0150 O             1 RES     
    1332 O           14.4000    21.2030    10.7780 O             1 RES     
    1333 OS          17.2170    24.9120    13.6390 OS            1 RES     
    1334 O            4.4340    46.6510     3.6400 O             1 RES     
    1335 O           30.7400    41.4030     3.7310 O             1 RES     
    1336 O            4.3840    13.3880    11.0640 O             1 RES     
    1337 O           22.1030    11.6210    13.7130 O             1 RES     
    1338 Si          31.4340    47.1230     9.0250 Si            1 RES     
    1339 OS          36.8030    42.6740    12.0850 OS            1 RES     
    1340 Si          22.1270    35.1590     9.6950 Si            1 RES     
    1341 Si           4.3300    41.3140     8.1820 Si            1 RES     
    1342 O           40.7490    28.5730    10.2950 O             1 RES     
    1343 O           32.6930    40.5850     4.9870 O             1 RES     
    1344 O           31.9860     3.9110     4.1460 O             1 RES     
    1345 O           45.5510     9.8530     8.1410 O             1 RES     
    1346 Si          30.2600    26.5190     5.2240 Si            1 RES     
    1347 Si          30.8330    16.8930    12.4020 Si            1 RES     
    1348 Si          33.1600    28.3150     9.5480 Si            1 RES     
    1349 O           44.0770    47.9320    12.2840 O             1 RES     
    1350 O           47.5480    38.0060     5.6180 O             1 RES     
    1351 Si          37.6450    27.2860     8.3550 Si            1 RES     
    1352 OS          27.5640    24.5850    13.4620 OS            1 RES     
    1353 O            7.1940    24.1080     3.5390 O             1 RES     
    1354 Si          16.4750     0.4530     5.0370 Si            1 RES     
    1355 OS          19.0150    33.9640    12.9490 OS            1 RES     
    1356 Si          13.7360    46.8480     4.7960 Si            1 RES     
    1357 O           45.7160     3.1720     7.7260 O             1 RES     
    1358 O           47.2460    43.8840     6.4930 O             1 RES     
    1359 O           33.8920     7.0090    12.1530 O             1 RES     
    1360 Si          39.0750     5.0900     3.8950 Si            1 RES     
    1361 O            7.5480    21.7370     2.2120 O             1 RES     
    1362 O           38.7150    11.9880     2.8450 O             1 RES     
    1363 O           17.3960    45.5620     7.7220 O             1 RES     
    1364 Si          25.4570     0.0150     8.9280 Si            1 RES     
    1365 O           26.8410    31.3830    11.3970 O             1 RES     
    1366 Si           6.6870    28.7520     8.6050 Si            1 RES     
    1367 O           22.9350     8.4130     3.4420 O             1 RES     
    1368 O           39.6580    23.4910     8.2180 O             1 RES     
    1369 O           40.5220    13.4140     7.5850 O             1 RES     
    1370 O           12.5910    40.7200     5.2870 O             1 RES     
    1371 OS          29.9960    21.1650    13.4540 OS            1 RES     
    1372 Si          41.0860    12.8460     6.2010 Si            1 RES     
    1373 Si          16.5360    42.3980     6.8450 Si            1 RES     
    1374 O            5.2850    29.5070     8.5800 O             1 RES     
    1375 Si          45.8050    26.2980     2.8180 Si            1 RES     
    1376 O           13.0470    46.5060     7.9250 O             1 RES     
    1377 O            0.7180    49.8240     8.9760 O             1 RES     
    1378 Si          11.1980    35.2150    10.2120 Si            1 RES     
    1379 O           16.1250    27.2630     7.1250 O             1 RES     
    1380 O           42.0090     8.9310     6.7160 O             1 RES     
    1381 O           29.4600     7.4260     7.0500 O             1 RES     
    1382 Si          24.4940    16.1220     5.1530 Si            1 RES     
    1383 O           14.2950    24.3120     4.4240 O             1 RES     
    1384 O           29.1570    32.0700     6.3030 O             1 RES     
    1385 O           16.2070    42.0650     2.8460 O             1 RES     
    1386 Si           9.1930     2.1070     6.1930 Si            1 RES     
    1387 O           22.3780    10.9030     3.1270 O             1 RES     
    1388 O           29.5450    27.8690     5.5900 O             1 RES     
    1389 Si           9.7130    35.8030     6.0890 Si            1 RES     
    1390 O           16.2530    39.6080     2.5560 O             1 RES     
    1391 O           36.1380    34.2730     4.0100 O             1 RES     
    1392 O           38.8820    42.7470     2.5550 O             1 RES     
    1393 O           41.4980     4.0980     6.5750 O             1 RES     
    1394 O           44.7810    41.7280     3.7870 O             1 RES     
    1395 Si          21.5530    37.3940     5.0980 Si            1 RES     
    1396 O           15.2540    46.7190     5.0130 O             1 RES     
    1397 Si          48.3050     8.8110     5.0710 Si            1 RES     
    1398 Si          19.3380    36.4260     9.9850 Si            1 RES     
    1399 O           47.7060     8.7760     8.5610 O             1 RES     
    1400 O           16.0610     6.3310     7.6540 O             1 RES     
    1401 O           48.3560    10.4680     2.3570 O             1 RES     
    1402 Si           7.5970    15.8860     3.3550 Si            1 RES     
    1403 Si          33.3320    42.4600    10.1280 Si            1 RES     
    1404 Si          46.0100    36.0040     3.3990 Si            1 RES     
    1405 O           46.9380    40.5590     4.9240 O             1 RES     
    1406 Si          14.4050    18.2450     4.9420 Si            1 RES     
    1407 O           46.1040    11.4080     5.6420 O             1 RES     
    1408 O           27.3830     8.8200     6.7370 O             1 RES     
    1409 O           31.8700    15.0560     3.2500 O             1 RES     
    1410 Si          15.9070    10.0890     6.7220 Si            1 RES     
    1411 O           10.8390    15.5770    10.8400 O             1 RES     
    1412 Si           3.8790    23.8550     9.3030 Si            1 RES     
    1413 O           10.9570    21.5610     8.4690 O             1 RES     
    1414 Si           7.0870    27.4220    11.3940 Si            1 RES     
    1415 O           42.1170    20.9600    11.0440 O             1 RES     
    1416 O           41.2090     6.6220     7.2350 O             1 RES     
    1417 Si           3.2300    16.7320     5.8630 Si            1 RES     
    1418 O           25.0490    41.8660     6.4780 O             1 RES     
    1419 Si           1.2730    44.7730    10.5840 Si            1 RES     
    1420 O            2.6120    46.4420     7.0790 O             1 RES     
    1421 O           13.6390    49.8840    10.2120 O             1 RES     
    1422 O           30.6700    34.1810     9.2810 O             1 RES     
    1423 Si          41.1270    42.6480     8.1450 Si            1 RES     
    1424 O           40.0150     6.7220    12.7820 O             1 RES     
    1425 OS          46.5220    14.8410    13.6800 OS            1 RES     
    1426 O           19.5030    37.4470    11.1780 O             1 RES     
    1427 O           40.1420    18.5980     7.4890 O             1 RES     
    1428 O            6.4810    45.2430    12.8770 O             1 RES     
    1429 O            3.6000    44.9390     4.7370 O             1 RES     
    1430 O           40.1310    32.9500    10.1810 O             1 RES     
    1431 Si          26.6890    16.7210     3.0580 Si            1 RES     
    1432 O           23.2980    16.4810    11.5780 O             1 RES     
    1433 O            7.4210    33.3580     4.5400 O             1 RES     
    1434 O           47.3600    32.4420     2.6270 O             1 RES     
    1435 O           38.3920    45.2230     3.4960 O             1 RES     
    1436 O            2.3880    18.0540     6.4230 O             1 RES     
    1437 O           25.3700    36.4550     2.4690 O             1 RES     
    1438 O           33.4470    13.1420     3.1830 O             1 RES     
    1439 OS          24.0410    23.1650    13.5520 OS            1 RES     
    1440 O           36.7380    34.8560     9.1230 O             1 RES     
    1441 O           43.6660    35.3340     8.4330 O             1 RES     
    1442 O           39.8860     2.2040    10.2160 O             1 RES     
    1443 OS          49.6020    12.7850    13.2680 OS            1 RES     
    1444 O           33.9400    24.2910     2.7330 O             1 RES     
    1445 O           11.1720    18.9820     5.3790 O             1 RES     
    1446 O           14.0480     9.3350     3.0620 O             1 RES     
    1447 O           42.7380    34.8950     2.7400 O             1 RES     
    1448 O           34.2480    35.0790     8.7640 O             1 RES     
    1449 O           14.3800    26.3200    10.8220 O             1 RES     
    1450 Si           5.3480    49.4170    12.7330 Si            1 RES     
    1451 O           41.5300    11.3990     6.3670 O             1 RES     
    1452 Si          11.4050    22.6560     4.4670 Si            1 RES     
    1453 Si           5.4440    46.3220    12.6150 Si            1 RES     
    1454 O           47.9650     3.8760     8.0230 O             1 RES     
    1455 O           22.6100    24.2770     9.1200 O             1 RES     
    1456 O            8.7410     3.2920     5.2770 O             1 RES     
    1457 O           43.1120    13.3500    10.8740 O             1 RES     
    1458 O           40.3440    48.4660     7.4730 O             1 RES     
    1459 OS           3.4810     4.3130    11.9250 OS            1 RES     
    1460 OS          15.4450    37.0720    13.3770 OS            1 RES     
    1461 O           30.5520    32.6320    11.0970 O             1 RES     
    1462 O           14.9040    13.0700     7.7000 O             1 RES     
    1463 Si          43.4640    34.5120     4.1050 Si            1 RES     
    1464 O           37.2750    41.3190     6.3480 O             1 RES     
    1465 O           16.5790     8.1120     3.7590 O             1 RES     
    1466 O           44.9030    17.5790     9.8250 O             1 RES     
    1467 O           42.4170    23.6620    11.1840 O             1 RES     
    1468 Si          11.8210    19.6120     4.0960 Si            1 RES     
    1469 O            4.2290     4.2180     9.5200 O             1 RES     
    1470 O           11.9240     3.5670     7.9060 O             1 RES     
    1471 Si          23.2640    28.3340     4.5650 Si            1 RES     
    1472 Si          10.6550    15.6260     6.9070 Si            1 RES     
    1473 Si          16.6240    47.4700     4.8540 Si            1 RES     
    1474 O           42.4230    43.5150    11.6360 O             1 RES     
    1475 O           44.6300    13.0840     4.7050 O             1 RES     
    1476 O           24.8870    23.7760     8.7800 O             1 RES     
    1477 Si          44.1340    14.4970    10.5390 Si            1 RES     
    1478 O            1.7890    11.3740     9.7400 O             1 RES     
    1479 Si          36.3550    48.1240     7.1680 Si            1 RES     
    1480 O           10.2310    49.0210     4.5630 O             1 RES     
    1481 O           28.3610    24.1750     9.0730 O             1 RES     
    1482 O           20.6590    43.6390     4.2780 O             1 RES     
    1483 Si          19.3750    41.1540     7.3020 Si            1 RES     
    1484 O           30.9560    11.5940     8.6360 O             1 RES     
    1485 OS          18.8340     9.1030    13.2000 OS            1 RES     
    1486 OS          18.5960    17.9340    13.0090 OS            1 RES     
    1487 O           46.4730     1.5150     3.5410 O             1 RES     
    1488 O           12.2390    25.8070     3.0760 O             1 RES     
    1489 O           34.3740    21.7230     2.4900 O             1 RES     
    1490 O            7.1170    49.6020     8.2970 O             1 RES     
    1491 O            7.2630    40.2660     5.4760 O             1 RES     
    1492 Si           5.9150    39.6130     6.0160 Si            1 RES     
    1493 O            3.6420    48.2090     1.7190 O             1 RES     
    1494 Si           9.3260    30.2780     8.7720 Si            1 RES     
    1495 O           21.8550    12.2470     7.6560 O             1 RES     
    1496 Si          32.0220    45.5090     3.4310 Si            1 RES     
    1497 Si          26.3280    36.2830     3.8650 Si            1 RES     
    1498 Si          29.2960    49.2110     4.6370 Si            1 RES     
    1499 Si           9.8470    49.8200    11.0250 Si            1 RES     
    1500 O           23.2350    37.5940     5.5630 O             1 RES     
    1501 O            4.4610     4.4630     6.6550 O             1 RES     
    1502 O           37.6840     4.5540     4.2990 O             1 RES     
    1503 O            8.1540    43.7040     6.2390 O             1 RES     
    1504 O           16.5850     3.8740     7.1990 O             1 RES     
    1505 Si          43.4070    14.0150     4.5790 Si            1 RES     
    1506 O           29.2980    38.8270     7.6790 O             1 RES     
    1507 O           29.3870    21.7350     9.2020 O             1 RES     
    1508 Si          19.1950    49.8120     3.6240 Si            1 RES     
    1509 O           38.6720    38.0910    11.0390 O             1 RES     
    1510 Si          37.7770    35.5230     8.0530 Si            1 RES     
    1511 O            0.8420    23.7000    11.6950 O             1 RES     
    1512 Si          45.3090    46.5390     8.6930 Si            1 RES     
    1513 O           40.1670    32.8790     5.9980 O             1 RES     
    1514 O           49.4920    12.2080     4.3130 O             1 RES     
    1515 Si          43.2470    18.1450     6.8110 Si            1 RES     
    1516 O            1.2610    45.9670     4.7330 O             1 RES     
    1517 O           20.5560     6.5140    11.2540 O             1 RES     
    1518 Si          46.4700    21.9070     5.5860 Si            1 RES     
    1519 O           33.7270     4.7470    11.2180 O             1 RES     
    1520 O           48.7680    39.6940    10.5490 O             1 RES     
    1521 Si           3.4020     1.0840     6.7640 Si            1 RES     
    1522 O           21.3330     1.8710    11.3530 O             1 RES     
    1523 O           35.5060    11.1090     6.4490 O             1 RES     
    1524 O           26.7580     4.1720     8.6430 O             1 RES     
    1525 OS          44.5140    28.1680    12.7980 OS            1 RES     
    1526 O           37.1250     4.6340     6.7400 O             1 RES     
    1527 Si          42.0090     8.7670     3.2600 Si            1 RES     
    1528 Si          46.1000    12.5440     4.5270 Si            1 RES     
    1529 OS          49.5030    40.8540    12.6370 OS            1 RES     
    1530 O           11.7300    11.3630    10.8470 O             1 RES     
    1531 Si          10.5060     3.9990     8.3070 Si            1 RES     
    1532 O           26.4340    42.8610    11.3620 O             1 RES     
    1533 OS          10.2690    20.2770    12.7150 OS            1 RES     
    1534 O            4.0880     6.5780     5.0410 O             1 RES     
    1535 Si           4.7960    45.1350     3.8250 Si            1 RES     
    1536 Si          17.2500    36.7620     5.3500 Si            1 RES     
    1537 O           22.6580    35.0170     8.1920 O             1 RES     
    1538 O            4.7760    11.3850     3.7570 O             1 RES     
    1539 Si           2.1730    30.1660    10.6390 Si            1 RES     
    1540 O            3.1690    11.5260     1.8630 O             1 RES     
    1541 Si           1.5830    19.4170     6.7290 Si            1 RES     
    1542 Si           4.1910    30.4610     4.9740 Si            1 RES     
    1543 O           18.7420    19.2920     3.6040 O             1 RES     
    1544 OS          29.6860    44.8840    11.6080 OS            1 RES     
    1545 Si          21.1900    42.2330     4.8640 Si            1 RES     
    1546 O           30.7800    20.5740     4.9990 O             1 RES     
    1547 O           19.1700    19.3410     6.1340 O             1 RES     
    1548 Si          21.9210     5.8130    11.6850 Si            1 RES     
    1549 O           30.8090    16.9810     1.4340 O             1 RES     
    1550 O           19.2280    34.6030     2.8800 O             1 RES     
    1551 Si           4.1090     5.0000     5.1770 Si            1 RES     
    1552 O            6.3600    18.8940     8.8740 O             1 RES     
    1553 O            6.2940     0.6990     3.4020 O             1 RES     
    1554 O           15.1280     3.2530    11.2180 O             1 RES     
    1555 Si          24.5940    16.9940    10.8350 Si            1 RES     
    1556 Si          12.2190    47.6710     7.2280 Si            1 RES     
    1557 O           37.6340    43.1750     4.6860 O             1 RES     
    1558 OS          40.8040     9.0420    13.7160 OS            1 RES     
    1559 Si          27.3070    45.2360     8.2250 Si            1 RES     
    1560 O           33.9980    22.9060     7.6760 O             1 RES     
    1561 O           45.1190    37.2770     3.0810 O             1 RES     
    1562 O            6.8140    47.4990     9.5180 O             1 RES     
    1563 O           14.2680    43.1000     4.5660 O             1 RES     
    1564 O           41.9410    38.7310    11.1050 O             1 RES     
    1565 O            5.3760    40.2880     7.4140 O             1 RES     
    1566 O           40.1690    43.8500     4.6990 O             1 RES     
    1567 O           27.7100    40.7150     6.5120 O             1 RES     
    1568 O           40.9140    41.0570     8.2180 O             1 RES     
    1569 O           30.0460    40.2740     5.7160 O             1 RES     
    1570 O           17.3190    47.0070     3.5200 O             1 RES     
    1571 Si          32.9580     4.0070    10.1090 Si            1 RES     
    1572 Si          34.8320    34.0840    12.5900 Si            1 RES     
    1573 OS           7.6280    43.2180    13.5850 OS            1 RES     
    1574 Si          47.7210    26.6370     7.6180 Si            1 RES     
    1575 O           30.9160    26.5840     3.7620 O             1 RES     
    1576 O           23.9220    42.3280    12.3240 O             1 RES     
    1577 OS          25.8880    40.5100    13.6960 OS            1 RES     
    1578 O           36.9150    15.8830     8.6820 O             1 RES     
    1579 O           21.1230    47.8380     9.4230 O             1 RES     
    1580 O           44.2260     1.4090     2.5910 O             1 RES     
    1581 O           21.3940    24.2170     4.6260 O             1 RES     
    1582 OS          38.1040    25.3190    12.6240 OS            1 RES     
    1583 Si          32.5640    11.8050     8.6730 Si            1 RES     
    1584 O           33.7820    18.0900     7.4940 O             1 RES     
    1585 OS           9.2800    39.5730    11.9060 OS            1 RES     
    1586 O            1.9720     1.2120     6.1930 O             1 RES     
    1587 O           46.1200    47.9080     8.9550 O             1 RES     
    1588 O           15.0400    45.0910     8.8960 O             1 RES     
    1589 O           40.8230    25.8370     1.9520 O             1 RES     
    1590 O            5.1570    33.7200     3.2020 O             1 RES     
    1591 Si          43.0790    47.3120    11.1950 Si            1 RES     
    1592 O            9.7870    41.1050     4.7360 O             1 RES     
    1593 O            6.1870    10.7460     5.5900 O             1 RES     
    1594 O           34.0590    49.7060     8.3830 O             1 RES     
    1595 O           46.9490    42.9200     4.2110 O             1 RES     
    1596 O           40.5380    39.4770     3.5280 O             1 RES     
    1597 O           25.0980    48.5330     8.5770 O             1 RES     
    1598 Si          33.8420    45.4100     9.7360 Si            1 RES     
    1599 O            1.0700    29.6330     2.7850 O             1 RES     
    1600 O           31.7480    46.3360     4.7500 O             1 RES     
    1601 OS          46.7180    43.3970    11.7750 OS            1 RES     
    1602 O           45.9950    25.4950     4.1030 O             1 RES     
    1603 Si          24.4620    20.2280     4.2260 Si            1 RES     
    1604 O            1.2180    40.0580    10.7650 O             1 RES     
    1605 O           49.7400    19.9800    10.4620 O             1 RES     
    1606 O           36.5850     7.6310    10.1330 O             1 RES     
    1607 O           32.3760    49.8430     3.1810 O             1 RES     
    1608 OS          29.5430    49.3210    12.4220 OS            1 RES     
    1609 Si          38.2170    48.4220    11.3390 Si            1 RES     
    1610 OS          27.3500    36.5040    12.2680 OS            1 RES     
    1611 O           21.5430    31.5880     9.9880 O             1 RES     
    1612 O           34.2360    27.1980    10.1070 O             1 RES     
    1613 Si          28.9930     5.7800     3.1930 Si            1 RES     
    1614 O           16.7080    12.7920     9.7260 O             1 RES     
    1615 OS           8.3120    28.2320    12.0050 OS            1 RES     
    1616 Si          17.5100    25.8340    12.3960 Si            1 RES     
    1617 O           13.1120    45.4360     5.0930 O             1 RES     
    1618 O            8.6580    38.8890     7.8230 O             1 RES     
    1619 O           25.4570    30.2240     5.8030 O             1 RES     
    1620 OS          15.4610    30.9980    12.0200 OS            1 RES     
    1621 OS          20.9830    17.0100    12.4260 OS            1 RES     
    1622 O            2.5790    23.0990     5.9300 O             1 RES     
    1623 Si          23.6140    20.2550     7.2040 Si            1 RES     
    1624 O           12.8580    28.5260    10.3000 O             1 RES     
    1625 Si          49.4750    31.2930     5.8120 Si            1 RES     
    1626 OS          30.2560     7.0160    13.1400 OS            1 RES     
    1627 O            1.0510    42.4950     2.7780 O             1 RES     
    1628 O           47.2880    39.8280     7.4040 O             1 RES     
    1629 Si          18.5590    46.0310     6.8330 Si            1 RES     
    1630 Si          34.5940    12.1700     2.8700 Si            1 RES     
    1631 Si          22.8780    32.3050    10.6540 Si            1 RES     
    1632 O           40.5280    15.8970     7.9670 O             1 RES     
    1633 O           49.8640    21.4210    12.6100 O             1 RES     
    1634 Si          42.2390     3.0160     7.4680 Si            1 RES     
    1635 OS           3.7080    32.8340    13.4430 OS            1 RES     
    1636 OS           2.5300    34.7780    12.6110 OS            1 RES     
    1637 O           49.6160    16.5430    11.2260 O             1 RES     
    1638 Si          27.6710    25.6370    12.2540 Si            1 RES     
    1639 O            9.4760    25.8230     3.2250 O             1 RES     
    1640 OS          16.1200    18.1080    12.2320 OS            1 RES     
    1641 Si           2.5000    36.8800     8.8330 Si            1 RES     
    1642 O           10.4580    19.5140    10.2270 O             1 RES     
    1643 O           31.5910     0.4320    11.3760 O             1 RES     
    1644 O            6.2520     3.0190     2.5250 O             1 RES     
    1645 O           23.7620    20.4510     5.6460 O             1 RES     
    1646 O            6.4440    28.1370     2.6900 O             1 RES     
    1647 Si          32.9600    16.8100     7.8490 Si            1 RES     
    1648 O           45.8420    12.2230     2.9200 O             1 RES     
    1649 Si          32.2490    34.8590     5.3880 Si            1 RES     
    1650 O           43.5730    19.3770     5.9410 O             1 RES     
    1651 O           41.4800    11.2340    10.4330 O             1 RES     
    1652 O           27.1300    19.9590    11.9050 O             1 RES     
    1653 O           43.1120     9.0960     2.1700 O             1 RES     
    1654 O           15.5340    25.4820     8.9350 O             1 RES     
    1655 O           28.6790    23.3450     2.1370 O             1 RES     
    1656 O           44.5210    17.3100     6.5560 O             1 RES     
    1657 O           13.6740    44.1950     7.0730 O             1 RES     
    1658 OS          14.3730    14.0060    12.1490 OS            1 RES     
    1659 O           15.2320    24.6720     6.5390 O             1 RES     
    1660 O           10.0290     5.5380     8.3100 O             1 RES     
    1661 Si          25.5300    22.6310     7.8570 Si            1 RES     
    1662 O            2.1790    47.9090     3.7720 O             1 RES     
    1663 Si          28.9950    23.7520     5.4270 Si            1 RES     
    1664 Si           3.1650    10.6790    10.1300 Si            1 RES     
    1665 O           16.2890    28.8230     5.1010 O             1 RES     
    1666 O           17.3520    32.1840     7.5460 O             1 RES     
    1667 O           34.8070    39.4040     4.0380 O             1 RES     
    1668 Si          36.5260    42.5080     5.6500 Si            1 RES     
    1669 O           19.9540     6.7290     6.2850 O             1 RES     
    1670 OS           4.6190    12.9200    13.5930 OS            1 RES     
    1671 O            2.3390     4.1420     7.6210 O             1 RES     
    1672 O           41.9660    30.8780     9.8350 O             1 RES     
    1673 Si          35.8660    49.2400     2.9200 Si            1 RES     
    1674 O            8.7220    18.7280     5.6150 O             1 RES     
    1675 OS          14.6250     3.0450    13.8430 OS            1 RES     
    1676 Si          35.9630    37.4350     6.4760 Si            1 RES     
    1677 Si           5.4570    15.2780     7.5350 Si            1 RES     
    1678 OS          27.9400    14.5790    12.6080 OS            1 RES     
    1679 Si          43.3240    41.8310     3.2860 Si            1 RES     
    1680 Si          43.4030    46.2690     6.1900 Si            1 RES     
    1681 Si          29.6460    11.3040     7.7860 Si            1 RES     
    1682 O           36.5260    14.3320    10.5830 O             1 RES     
    1683 O           36.0060    43.7990     6.4990 O             1 RES     
    1684 Si           8.0120    14.4310     6.0600 Si            1 RES     
    1685 O           38.2490    18.3300     8.8490 O             1 RES     
    1686 O           43.7310    19.8350     3.3930 O             1 RES     
    1687 O           27.6680    35.9060     3.0870 O             1 RES     
    1688 O            0.4900    43.5340    10.0180 O             1 RES     
    1689 O           13.6420    35.4190     6.9260 O             1 RES     
    1690 O           12.7540    11.4440     2.6230 O             1 RES     
    1691 Si          12.9910    27.1330    10.9580 Si            1 RES     
    1692 Si          23.8630    45.8620    11.9930 Si            1 RES     
    1693 O           22.2970    48.3590     5.3120 O             1 RES     
    1694 Si          25.9610     5.2320     7.8690 Si            1 RES     
    1695 O           24.2940     1.8930     2.7680 O             1 RES     
    1696 O           16.4760    37.7040     4.3180 O             1 RES     
    1697 OS          22.5200    49.9330    12.4180 OS            1 RES     
    1698 O           38.9960     6.4630     3.1540 O             1 RES     
    1699 Si          10.7150    31.6810    12.0640 Si            1 RES     
    1700 O           34.5510    35.6090    12.8760 O             1 RES     
    1701 Si          40.2900    17.2020     6.6710 Si            1 RES     
    1702 O            0.1750    17.8730     2.5890 O             1 RES     
    1703 O           25.4540    16.6890     4.0590 O             1 RES     
    1704 O           21.2320    41.1290     3.7910 O             1 RES     
    1705 O           47.9910    20.1320     7.5240 O             1 RES     
    1706 O           28.9260     1.4310     7.6320 O             1 RES     
    1707 Si          24.1400     6.9550     9.6920 Si            1 RES     
    1708 Si          10.0460    45.8610    12.3140 Si            1 RES     
    1709 O           19.5920    46.6460     7.8140 O             1 RES     
    1710 O           49.2820    13.9790     6.4470 O             1 RES     
    1711 Si          32.7610    30.8370     8.0090 Si            1 RES     
    1712 OS          36.0280    19.1090    11.6440 OS            1 RES     
    1713 O           25.9280    36.2850     9.9660 O             1 RES     
    1714 O           16.9410     1.5030    13.9450 O             1 RES     
    1715 Si           8.0890     9.1650     3.4690 Si            1 RES     
    1716 O            7.4840    43.0870     8.6110 O             1 RES     
    1717 O            1.1320    27.7500     4.4110 O             1 RES     
    1718 Si          41.8280    48.1740     7.9800 Si            1 RES     
    1719 Si          38.2600     9.3290     6.6120 Si            1 RES     
    1720 O           40.4440    45.0910    11.7210 O             1 RES     
    1721 O           22.1720    28.9880    12.0870 O             1 RES     
    1722 O           22.5850    42.3680     5.5940 O             1 RES     
    1723 OS           6.3640     0.9860    13.3560 OS            1 RES     
    1724 O           21.1010    18.6210     4.3820 O             1 RES     
    1725 O           28.6020    25.5380    10.9880 O             1 RES     
    1726 Si          45.1290    16.0420     5.8950 Si            1 RES     
    1727 O           48.0560    45.4530    12.2910 O             1 RES     
    1728 O           14.1680    24.4350     1.8690 O             1 RES     
    1729 O           13.8490    13.9900     5.4690 O             1 RES     
    1730 Si          41.6930    22.5180     5.2840 Si            1 RES     
    1731 O            7.7250    10.1780     9.7690 O             1 RES     
    1732 O           15.1780    41.4640     6.7210 O             1 RES     
    1733 O            0.5540    24.3760     6.7230 O             1 RES     
    1734 Si          38.2510    39.6490    11.1770 Si            1 RES     
    1735 O           13.2470     4.9020     3.6700 O             1 RES     
    1736 O           37.0490     8.3670     5.3170 O             1 RES     
    1737 O           18.5340     9.5700     4.7320 O             1 RES     
    1738 O           28.1010     7.5450     8.9600 O             1 RES     
    1739 O            4.4450    49.1510     3.9220 O             1 RES     
    1740 Si          34.1500     0.2340     6.9910 Si            1 RES     
    1741 O           28.9690     0.5530     5.4100 O             1 RES     
    1742 O           25.2910    45.2430    11.4690 O             1 RES     
    1743 OS          48.5810     0.0460    12.8100 OS            1 RES     
    1744 O            9.1010    41.7060     7.7430 O             1 RES     
    1745 OS          48.7460    16.5420    13.5350 OS            1 RES     
    1746 O            2.8580    31.2520    11.5010 O             1 RES     
    1747 O           28.9490    32.9340     4.0500 O             1 RES     
    1748 Si          46.1820    13.6870    12.6920 Si            1 RES     
    1749 O           22.4060    27.0210     4.5720 O             1 RES     
    1750 O           32.4200    22.4380     3.8130 O             1 RES     
    1751 Si          19.3320    37.9810     7.2560 Si            1 RES     
    1752 O           13.0730    33.9140    13.3170 O             1 RES     
    1753 OS           1.1850    49.5760    12.8470 OS            1 RES     
    1754 Si          23.2730    36.9670    11.8210 Si            1 RES     
    1755 O           25.0460    37.2640     7.3890 O             1 RES     
    1756 O           14.9480    19.2350     6.0250 O             1 RES     
    1757 O           20.8760    30.5270     2.4170 O             1 RES     
    1758 Si          47.2880    48.5670     9.7450 Si            1 RES     
    1759 Si          39.1580     5.4970    12.3780 Si            1 RES     
    1760 O            6.1050    35.7080     4.4190 O             1 RES     
    1761 O           36.5980     2.3970    12.3880 O             1 RES     
    1762 Si          15.4760    20.6070     6.7620 Si            1 RES     
    1763 O           14.5900    33.3570    11.3350 O             1 RES     
    1764 Si          17.0470     0.9500    12.4370 Si            1 RES     
    1765 O            2.3170     7.2640     8.3850 O             1 RES     
    1766 O            9.0200    36.3940     7.3610 O             1 RES     
    1767 O            0.4130    36.1710    11.9020 O             1 RES     
    1768 O            7.3160    17.2230    10.7510 O             1 RES     
    1769 O           48.3180    49.4250     8.8890 O             1 RES     
    1770 Si          46.3050     7.2390    11.5810 Si            1 RES     
    1771 Si           0.9870    22.4530    12.7220 Si            1 RES     
    1772 O           26.4740    16.1000     1.6920 O             1 RES     
    1773 O           12.6550    43.2920    11.9990 O             1 RES     
    1774 O           12.0960     9.1050     6.9030 O             1 RES     
    1775 Si          34.7290    19.2200    10.7460 Si            1 RES     
    1776 O            9.8690    36.6850     4.6570 O             1 RES     
    1777 O            6.2950    49.5440    10.8970 O             1 RES     
    1778 O           41.9290    17.3280     6.3350 O             1 RES     
    1779 O            9.4350    46.6280     4.5100 O             1 RES     
    1780 O           40.4240     8.4670     2.8820 O             1 RES     
    1781 Si          26.2590     7.5200    11.9100 Si            1 RES     
    1782 O           32.8230    46.4750     9.3520 O             1 RES     
    1783 Si           6.6160    22.6860     3.5980 Si            1 RES     
    1784 O           27.6590    26.8770     8.9330 O             1 RES     
    1785 Si          15.6720    43.1520     3.8470 Si            1 RES     
    1786 O           44.8030    25.8370     6.1180 O             1 RES     
    1787 O           12.3800     0.3960     4.1410 O             1 RES     
@<TRIPOS>BOND
       1     1484     1681 1
       2      159      167 1
       3      798     1343 1
       4      782     1506 1
       5     1063     1470 1
       6      950     1710 1
       7      217     1395 1
       8      133      822 1
       9       54      458 1
      10      121     1305 1
      11      257     1341 1
      12     1701     1778 1
      13      482      544 1
      14      880     1673 1
      15      497     1175 1
      16      468     1744 1
      17      998     1409 1
      18      562     1616 1
      19      848     1483 1
      20      552     1155 1
      21      482     1513 1
      22      780     1596 1
      23      355      480 1
      24      718     1108 1
      25      268     1462 1
      26      396     1059 1
      27     1016     1685 1
      28       10      307 1
      29      704     1779 1
      30      243      635 1
      31       77      517 1
      32      940     1766 1
      33       69      193 1
      34      371      654 1
      35      100     1154 1
      36      858     1118 1
      37      228     1115 1
      38      760      828 1
      39       53      878 1
      40      442      783 1
      41      912     1167 1
      42      424      875 1
      43      564     1366 1
      44       21      231 1
      45     1178     1250 1
      46      754      884 1
      47     1268     1371 1
      48      295     1711 1
      49      885     1405 1
      50     1032     1373 1
      51      368      801 1
      52     1283     1318 1
      53     1189     1510 1
      54      353     1201 1
      55      816      862 1
      56      886     1630 1
      57      520     1730 1
      58      347      997 1
      59     1373     1732 1
      60      707      740 1
      61      570     1380 1
      62       47       73 1
      63       74      982 1
      64      299     1571 1
      65     1076     1754 1
      66      600     1280 1
      67      219     1779 1
      68      408     1753 1
      69      473     1178 1
      70      954     1647 1
      71      449     1494 1
      72     1236     1744 1
      73     1125     1706 1
      74     1054     1501 1
      75      677     1205 1
      76      807      944 1
      77      942      966 1
      78       40     1117 1
      79      284     1043 1
      80      245      927 1
      81      399     1609 1
      82      246     1472 1
      83      760     1273 1
      84     1001     1397 1
      85     1142     1373 1
      86     1045     1301 1
      87     1491     1492 1
      88      424      556 1
      89      698     1667 1
      90      645     1503 1
      91      494     1457 1
      92      186     1175 1
      93       15      458 1
      94      561     1024 1
      95      461      672 1
      96     1447     1463 1
      97      273     1086 1
      98      571      882 1
      99       67     1258 1
     100      798     1667 1
     101      308     1768 1
     102      441      463 1
     103      658     1066 1
     104      594      785 1
     105      317     1456 1
     106      277      814 1
     107      711      864 1
     108      493      789 1
     109        7      952 1
     110       25     1486 1
     111      633     1586 1
     112      782     1027 1
     113     1246     1383 1
     114      242     1494 1
     115     1236     1618 1
     116        8      288 1
     117      436     1535 1
     118      319      651 1
     119      188     1147 1
     120      811     1102 1
     121     1134     1556 1
     122       13      702 1
     123      822     1665 1
     124      696     1309 1
     125      470     1320 1
     126      607     1491 1
     127      435      925 1
     128      218     1496 1
     129      122      448 1
     130      491      761 1
     131      348      408 1
     132      186     1613 1
     133      808     1432 1
     134      678      711 1
     135      930     1360 1
     136      690     1174 1
     137      107      216 1
     138      142      233 1
     139      898      992 1
     140      941     1044 1
     141      384     1555 1
     142     1270     1488 1
     143      995     1634 1
     144      356      496 1
     145      388      830 1
     146     1088     1619 1
     147      391     1032 1
     148       18       38 1
     149      116      557 1
     150      388      522 1
     151      451     1372 1
     152     1414     1615 1
     153      325      633 1
     154     1478     1664 1
     155      853     1580 1
     156     1324     1707 1
     157     1056     1414 1
     158      660     1537 1
     159      652     1419 1
     160      143      329 1
     161     1168     1630 1
     162     1207     1263 1
     163     1046     1707 1
     164       86     1482 1
     165      883     1096 1
     166      628     1265 1
     167       82     1419 1
     168      767      780 1
     169      570     1009 1
     170     1708     1773 1
     171      574      981 1
     172      555     1024 1
     173       38     1654 1
     174     1038     1559 1
     175      404      891 1
     176     1515     1778 1
     177     1429     1535 1
     178      259     1400 1
     179      723     1231 1
     180      433     1547 1
     181      623     1602 1
     182      991     1605 1
     183      378     1070 1
     184      876     1632 1
     185      340      666 1
     186      513     1112 1
     187      527     1716 1
     188     1524     1694 1
     189       16      697 1
     190      618     1549 1
     191     1492     1565 1
     192      315     1311 1
     193      541     1240 1
     194     1221     1598 1
     195      152     1497 1
     196      624      889 1
     197      232     1477 1
     198      233      825 1
     199      457     1079 1
     200      409      973 1
     201      165     1071 1
     202      145      876 1
     203      395     1601 1
     204      945     1360 1
     205      219      530 1
     206      391     1588 1
     207      222      806 1
     208      254     1130 1
     209      644     1572 1
     210     1112     1649 1
     211      488     1661 1
     212      564      952 1
     213      179      775 1
     214      883     1522 1
     215     1026     1309 1
     216      250     1582 1
     217      753     1694 1
     218       15     1717 1
     219      333     1008 1
     220      626     1144 1
     221     1712     1775 1
     222     1200     1499 1
     223      809      877 1
     224      466     1725 1
     225      806     1029 1
     226       29     1433 1
     227      591      772 1
     228      575      734 1
     229     1016     1578 1
     230      601      782 1
     231      171     1176 1
     232      230     1718 1
     233      713     1356 1
     234      879     1647 1
     235       59     1751 1
     236      517     1658 1
     237      362      511 1
     238      332     1018 1
     239      719     1696 1
     240     1656     1726 1
     241       36      603 1
     242      837     1215 1
     243      538     1591 1
     244     1274     1424 1
     245      557     1066 1
     246      601     1258 1
     247       93     1374 1
     248      376     1423 1
     249      468     1716 1
     250      305     1692 1
     251      237     1080 1
     252      523      596 1
     253      248     1623 1
     254      410      724 1
     255      643      850 1
     256       69      115 1
     257      862     1434 1
     258      238     1058 1
     259     1021     1108 1
     260      558     1381 1
     261      482      795 1
     262      412      842 1
     263      667      983 1
     264      611      839 1
     265      211      256 1
     266     1015     1730 1
     267     1431     1703 1
     268      721     1715 1
     269      346      512 1
     270       99      779 1
     271      799     1172 1
     272     1389     1766 1
     273      842     1553 1
     274      134     1669 1
     275     1074     1726 1
     276      170      617 1
     277      540     1047 1
     278      989     1000 1
     279      693     1628 1
     280     1257     1378 1
     281      577     1542 1
     282      587      861 1
     283      455     1268 1
     284        9      924 1
     285      853     1487 1
     286       62      496 1
     287      135      729 1
     288      602     1412 1
     289      556      721 1
     290      546     1764 1
     291       51      501 1
     292      172     1681 1
     293     1250     1702 1
     294      272     1347 1
     295      398      415 1
     296       53     1332 1
     297     1563     1785 1
     298      871      954 1
     299     1045     1313 1
     300      154      574 1
     301      304     1368 1
     302     1193     1202 1
     303      870     1011 1
     304     1216     1281 1
     305      670     1185 1
     306      137     1769 1
     307      446     1357 1
     308      251      270 1
     309      158     1505 1
     310      265      484 1
     311       68     1120 1
     312      822     1379 1
     313     1274     1558 1
     314      661     1740 1
     315     1356     1396 1
     316      199      587 1
     317     1170     1572 1
     318      910     1737 1
     319      452     1527 1
     320      319      356 1
     321      745     1483 1
     322      262     1402 1
     323      501      718 1
     324       51      465 1
     325      947     1463 1
     326       57     1721 1
     327      648     1642 1
     328      775     1336 1
     329      144      692 1
     330      494     1651 1
     331      574     1682 1
     332      209      787 1
     333      272      871 1
     334      381     1444 1
     335       24      989 1
     336      465     1307 1
     337       41      603 1
     338     1117     1256 1
     339       56      957 1
     340      311     1354 1
     341      732      757 1
     342      149     1406 1
     343       28      952 1
     344      234      949 1
     345      249      929 1
     346       35      865 1
     347     1302     1375 1
     348      129     1133 1
     349      252      293 1
     350     1534     1551 1
     351     1210     1311 1
     352      819     1715 1
     353     1038     1231 1
     354      491      519 1
     355      285     1281 1
     356      982     1060 1
     357      471     1286 1
     358      189     1323 1
     359     1154     1534 1
     360      881     1625 1
     361     1319     1684 1
     362      212      872 1
     363      559      896 1
     364       44      717 1
     365      316      535 1
     366      274      505 1
     367      258     1679 1
     368      636     1453 1
     369      877     1625 1
     370      792     1232 1
     371       47      134 1
     372      640      698 1
     373      447     1740 1
     374       54     1622 1
     375     1289     1468 1
     376      342      917 1
     377      201     1013 1
     378      289     1354 1
     379      985     1649 1
     380      845      923 1
     381      445     1386 1
     382      519     1107 1
     383      324     1182 1
     384      353     1547 1
     385      606     1017 1
     386      760     1460 1
     387      997     1358 1
     388      846      907 1
     389      804     1323 1
     390      362     1064 1
     391       96      112 1
     392     1169     1382 1
     393      340      516 1
     394      402     1236 1
     395      238     1637 1
     396      299     1091 1
     397      728     1762 1
     398     1473     1570 1
     399      199     1603 1
     400      363     1274 1
     401       59     1398 1
     402       48     1754 1
     403      465      553 1
     404      842     1067 1
     405      648     1413 1
     406     1122     1508 1
     407     1190     1692 1
     408      857      938 1
     409        2      742 1
     410      520     1253 1
     411      137     1377 1
     412     1209     1401 1
     413      330      517 1
     414       88     1231 1
     415      924     1002 1
     416     1044     1312 1
     417     1114     1154 1
     418     1167     1646 1
     419      360     1664 1
     420     1340     1537 1
     421      438     1280 1
     422      171     1721 1
     423      240      473 1
     424      109     1351 1
     425      260     1574 1
     426     1501     1551 1
     427      726     1629 1
     428      135     1418 1
     429     1150     1393 1
     430      346     1210 1
     431      649     1098 1
     432       45     1532 1
     433      346      968 1
     434      114      856 1
     435      385      409 1
     436      768     1552 1
     437      694     1742 1
     438      637      943 1
     439       23       29 1
     440      833     1679 1
     441     1275     1538 1
     442     1157     1479 1
     443      588     1677 1
     444       10      377 1
     445     1437     1497 1
     446      361      536 1
     447     1017     1388 1
     448     1517     1548 1
     449      760      966 1
     450      578     1299 1
     451     1536     1696 1
     452      514     1634 1
     453     1162     1551 1
     454     1305     1750 1
     455     1102     1641 1
     456      434      599 1
     457       46     1518 1
     458      919     1442 1
     459      296     1590 1
     460      548      657 1
     461      250      752 1
     462      119     1666 1
     463       36       65 1
     464      195      420 1
     465      238     1745 1
     466      687     1507 1
     467     1372     1451 1
     468      169     1631 1
     469       86      909 1
     470      437     1554 1
     471      252      682 1
     472       43      439 1
     473      134      892 1
     474     1352     1638 1
     475      734     1109 1
     476      408      750 1
     477     1315     1497 1
     478     1714     1764 1
     479      245     1220 1
     480      603     1627 1
     481      499     1375 1
     482      210     1669 1
     483      461      573 1
     484      135     1567 1
     485      379      548 1
     486      834      901 1
     487      490      996 1
     488       56     1419 1
     489      437      625 1
     490      170      431 1
     491     1233     1406 1
     492      890     1127 1
     493      848     1751 1
     494      825     1554 1
     495      263     1222 1
     496      396     1504 1
     497      609     1166 1
     498     1425     1748 1
     499      736     1286 1
     500      103      935 1
     501      747     1193 1
     502      185      950 1
     503       65      668 1
     504      703      751 1
     505      187      634 1
     506     1216     1446 1
     507      709     1414 1
     508      308      864 1
     509      897     1674 1
     510      899     1132 1
     511      827     1562 1
     512      283     1325 1
     513       14     1091 1
     514       81     1003 1
     515      907     1704 1
     516       32      166 1
     517      133      189 1
     518      768     1303 1
     519      187     1278 1
     520      361     1644 1
     521      785      901 1
     522      191     1574 1
     523      336     1493 1
     524     1191     1303 1
     525     1229     1313 1
     526      336     1739 1
     527       89      131 1
     528      383      567 1
     529      465     1400 1
     530      340     1612 1
     531      126     1757 1
     532      466      540 1
     533      533     1538 1
     534      688     1325 1
     535      169     1340 1
     536     1366     1374 1
     537      654     1610 1
     538     1016     1208 1
     539      527     1035 1
     540      290      999 1
     541      239      948 1
     542      271      809 1
     543       39      187 1
     544       95      364 1
     545      241     1376 1
     546      536     1551 1
     547     1545     1722 1
     548      797     1203 1
     549      542      568 1
     550     1223     1775 1
     551      421     1236 1
     552      929     1138 1
     553      177     1044 1
     554      327     1641 1
     555      130     1055 1
     556      221     1589 1
     557     1138     1203 1
     558       20      662 1
     559     1209     1514 1
     560      569     1105 1
     561      241     1588 1
     562      758     1754 1
     563      860     1314 1
     564     1254     1643 1
     565     1496     1600 1
     566      433     1543 1
     567      284      610 1
     568       76     1247 1
     569      627     1380 1
     570     1208     1701 1
     571      529     1423 1
     572       45     1577 1
     573       70      448 1
     574      298      715 1
     575      212     1003 1
     576       73      823 1
     577      704     1134 1
     578      357     1680 1
     579      327      568 1
     580      910     1111 1
     581      711     1642 1
     582      939     1325 1
     583     1692     1742 1
     584      137      669 1
     585      659      775 1
     586      479     1441 1
     587      838     1188 1
     588      761     1023 1
     589      285     1307 1
     590      867     1342 1
     591      800     1552 1
     592      154      871 1
     593     1091     1643 1
     594      620      889 1
     595      570     1416 1
     596       37      829 1
     597      390      865 1
     598      906     1176 1
     599      723      831 1
     600      294     1271 1
     601     1052     1541 1
     602     1398     1426 1
     603      312      733 1
     604      808     1312 1
     605      163      524 1
     606      726     1473 1
     607       96     1272 1
     608      373      703 1
     609      319      382 1
     610      552     1115 1
     611      756      775 1
     612     1028     1287 1
     613       89      804 1
     614     1144     1674 1
     615       74     1135 1
     616      513      650 1
     617      312      550 1
     618      464      648 1
     619      580      648 1
     620     1263     1594 1
     621      180     1346 1
     622      613     1356 1
     623       93      125 1
     624       84     1099 1
     625     1000     1467 1
     626      968     1147 1
     627      897      967 1
     628      405      673 1
     629       40     1301 1
     630      231      621 1
     631      742     1067 1
     632     1299     1680 1
     633     1246     1659 1
     634      962     1569 1
     635     1085     1137 1
     636       31     1395 1
     637      318      378 1
     638      855     1468 1
     639      645     1156 1
     640      206     1661 1
     641     1341     1565 1
     642       88      697 1
     643      693     1080 1
     644      803     1075 1
     645     1633     1771 1
     646      394     1349 1
     647       58      922 1
     648     1106     1197 1
     649      207     1086 1
     650      774     1110 1
     651      416     1591 1
     652       80      873 1
     653       63      181 1
     654       53      443 1
     655      468     1503 1
     656      674     1707 1
     657      473     1074 1
     658      251     1638 1
     659     1008     1181 1
     660      448      668 1
     661      364      510 1
     662      414      480 1
     663     1424     1759 1
     664      115     1186 1
     665      366      404 1
     666      651     1284 1
     667      430     1542 1
     668     1025     1357 1
     669      607      744 1
     670      206      403 1
     671      324      815 1
     672      784     1065 1
     673       93      430 1
     674      563      832 1
     675      676     1351 1
     676      790     1022 1
     677     1237     1452 1
     678      961     1764 1
     679      466     1784 1
     680      673      905 1
     681      265      521 1
     682      929     1469 1
     683      483      542 1
     684      706     1364 1
     685      584      796 1
     686      474      806 1
     687      703     1665 1
     688      313     1378 1
     689      685     1232 1
     690      486     1088 1
     691     1624     1691 1
     692     1055     1259 1
     693      319     1441 1
     694      162      507 1
     695     1008     1183 1
     696      254     1391 1
     697      916     1062 1
     698      252     1217 1
     699       57      506 1
     700      768     1768 1
     701      576      587 1
     702      123      658 1
     703      569      581 1
     704      220     1519 1
     705       66     1186 1
     706      363     1137 1
     707      112      287 1
     708      289     1473 1
     709     1122     1354 1
     710       60     1508 1
     711      796     1084 1
     712      178      489 1
     713     1123     1759 1
     714      207     1263 1
     715      849      950 1
     716      184     1474 1
     717     1528     1648 1
     718       44      808 1
     719      921      971 1
     720      127      490 1
     721      195     1654 1
     722      528     1327 1
     723      245     1384 1
     724      293     1701 1
     725      292     1682 1
     726      298     1202 1
     727      625     1764 1
     728      303     1722 1
     729      612     1097 1
     730     1404     1561 1
     731      962     1567 1
     732      694     1105 1
     733      174     1399 1
     734      809      979 1
     735     1376     1556 1
     736     1024     1710 1
     737      301      628 1
     738      376      578 1
     739      269     1079 1
     740       91     1093 1
     741     1165     1564 1
     742      764     1743 1
     743      359      720 1
     744      655     1091 1
     745       63     1335 1
     746       58      415 1
     747      749     1155 1
     748      128     1402 1
     749      190     1692 1
     750      559      972 1
     751      906     1194 1
     752      374     1263 1
     753      145      494 1
     754      763     1331 1
     755       45     1576 1
     756      402     1062 1
     757      741     1751 1
     758      607      781 1
     759      223      586 1
     760      569     1576 1
     761      531      934 1
     762      559     1259 1
     763      333      739 1
     764     1069     1269 1
     765      379     1759 1
     766      426     1086 1
     767     1394     1679 1
     768      948     1370 1
     769      618     1409 1
     770      147      701 1
     771     1238     1498 1
     772      645     1094 1
     773     1172     1288 1
     774      677     1211 1
     775     1192     1711 1
     776      134      153 1
     777      539      809 1
     778      392     1108 1
     779      579      841 1
     780      761     1454 1
     781      936     1412 1
     782      401      847 1
     783     1089     1697 1
     784      394     1720 1
     785      283     1144 1
     786      940     1618 1
     787     1034     1081 1
     788      365      863 1
     789       18      789 1
     790      920     1754 1
     791      182     1167 1
     792      565     1731 1
     793      429      931 1
     794      598     1415 1
     795      854     1730 1
     796     1005     1693 1
     797      895     1147 1
     798      993     1042 1
     799      151     1383 1
     800      676      867 1
     801     1160     1613 1
     802     1295     1734 1
     803      172      558 1
     804      121     1663 1
     805      149      505 1
     806      211     1387 1
     807     1227     1496 1
     808      388     1568 1
     809     1136     1715 1
     810     1327     1471 1
     811      338     1785 1
     812      290     1706 1
     813      336     1334 1
     814       61      404 1
     815      239     1082 1
     816      102      415 1
     817       33      203 1
     818      245      583 1
     819      155     1033 1
     820       99     1168 1
     821     1382     1703 1
     822     1632     1701 1
     823      123      501 1
     824      312      632 1
     825      409     1226 1
     826      300     1318 1
     827      735     1088 1
     828      716     1452 1
     829      423     1338 1
     830      487     1285 1
     831      743      948 1
     832      110      768 1
     833     1261     1472 1
     834      124      205 1
     835      985     1103 1
     836       78     1724 1
     837      532     1410 1
     838     1286     1350 1
     839     1195     1529 1
     840      725     1402 1
     841      732     1518 1
     842      403      794 1
     843      483      955 1
     844     1417     1436 1
     845      600     1016 1
     846      246     1684 1
     847      585      808 1
     848       52     1284 1
     849     1006     1279 1
     850      104     1135 1
     851      472     1738 1
     852      135      890 1
     853     1324     1548 1
     854      208      902 1
     855      897     1445 1
     856      872     1344 1
     857      375      473 1
     858      949     1070 1
     859      641     1166 1
     860      827     1490 1
     861      112     1689 1
     862      963     1631 1
     863      817      830 1
     864      578     1177 1
     865      198     1268 1
     866      329      602 1
     867      763     1440 1
     868      427     1411 1
     869      320     1039 1
     870     1428     1453 1
     871      101     1726 1
     872     1110     1365 1
     873     1527     1653 1
     874      109      304 1
     875       19     1197 1
     876      761     1049 1
     877      460     1290 1
     878      418     1099 1
     879      665     1671 1
     880      447      531 1
     881       93      502 1
     882      839     1018 1
     883      495     1761 1
     884      201     1408 1
     885      303      770 1
     886      757      854 1
     887      783     1084 1
     888      253      254 1
     889      773     1417 1
     890      851     1613 1
     891     1445     1468 1
     892      107     1719 1
     893      302      328 1
     894      371      649 1
     895      237     1139 1
     896       97      317 1
     897      316      323 1
     898      279      667 1
     899     1034     1111 1
     900     1022     1495 1
     901      140     1292 1
     902       49     1158 1
     903      559      970 1
     904      876     1369 1
     905     1117     1245 1
     906      407      831 1
     907      355      627 1
     908       14      220 1
     909      234     1681 1
     910      696     1649 1
     911      183     1624 1
     912      416      926 1
     913      959     1583 1
     914      100      533 1
     915     1432     1555 1
     916      259     1504 1
     917      403      893 1
     918      638     1737 1
     919     1197     1672 1
     920      566     1192 1
     921      148     1017 1
     922        2      704 1
     923      670     1688 1
     924      214     1119 1
     925      276      395 1
     926      740     1092 1
     927     1019     1521 1
     928      932     1013 1
     929      477      789 1
     930      312     1530 1
     931      611     1359 1
     932      292     1578 1
     933     1611     1631 1
     934       95     1719 1
     935       50       53 1
     936     1515     1650 1
     937      359      529 1
     938      545      875 1
     939      717     1152 1
     940       65     1358 1
     941      208      384 1
     942      631     1193 1
     943       67      850 1
     944       30      304 1
     945      266      353 1
     946      654      758 1
     947      577     1230 1
     948     1215     1663 1
     949     1116     1680 1
     950      275     1668 1
     951      334      437 1
     952      500     1525 1
     953      177     1555 1
     954      282      882 1
     955     1509     1734 1
     956      824     1545 1
     957      410      998 1
     958      111     1321 1
     959       84      811 1
     960      702      840 1
     961      480     1407 1
     962      353      631 1
     963      820     1747 1
     964      318     1382 1
     965      255      670 1
     966      757     1686 1
     967      347     1512 1
     968     1137     1145 1
     969      976     1404 1
     970     1283     1641 1
     971      597     1775 1
     972      595     1320 1
     973       92      780 1
     974       55      810 1
     975      911     1006 1
     976     1457     1477 1
     977      825     1675 1
     978      623     1786 1
     979       25     1073 1
     980      674      932 1
     981     1587     1758 1
     982      702     1467 1
     983      119      521 1
     984      454      502 1
     985      250      666 1
     986      210      672 1
     987      870     1063 1
     988      397     1057 1
     989     1003     1381 1
     990      131     1355 1
     991      240      284 1
     992      322     1347 1
     993      474      944 1
     994      181     1231 1
     995      996     1555 1
     996      556      843 1
     997      361     1282 1
     998      712      814 1
     999      183      484 1
    1000      150      596 1
    1001      345     1101 1
    1002      151     1728 1
    1003      118     1027 1
    1004      837     1481 1
    1005      992     1410 1
    1006     1019     1054 1
    1007      119      575 1
    1008      180     1047 1
    1009      287     1536 1
    1010      367     1708 1
    1011      670      777 1
    1012       46      915 1
    1013     1165     1222 1
    1014      250      994 1
    1015      138     1325 1
    1016      544     1248 1
    1017      331      690 1
    1018      317     1282 1
    1019      433     1724 1
    1020      374     1479 1
    1021      228     1166 1
    1022      585      949 1
    1023      357     1718 1
    1024      171      526 1
    1025      789      826 1
    1026      539      787 1
    1027       87      547 1
    1028      439     1718 1
    1029     1043     1518 1
    1030      755      847 1
    1031      763     1448 1
    1032      208     1652 1
    1033      425      433 1
    1034      344     1335 1
    1035      603     1290 1
    1036      957     1211 1
    1037      727     1069 1
    1038      741     1536 1
    1039        3      639 1
    1040      280      806 1
    1041     1143     1430 1
    1042      369     1244 1
    1043       72      472 1
    1044     1197     1342 1
    1045      621     1711 1
    1046      623      821 1
    1047      665     1198 1
    1048      633      669 1
    1049     1108     1530 1
    1050     1300     1510 1
    1051      269     1100 1
    1052      119     1199 1
    1053      155      805 1
    1054      745     1135 1
    1055      977     1185 1
    1056     1484     1583 1
    1057      844      917 1
    1058      411      483 1
    1059      197      810 1
    1060     1141     1417 1
    1061      297     1062 1
    1062      176     1022 1
    1063       79      359 1
    1064      589     1499 1
    1065      151     1488 1
    1066        5      438 1
    1067      173     1677 1
    1068       42      642 1
    1069      337     1099 1
    1070      343      843 1
    1071      610     1541 1
    1072     1002     1571 1
    1073     1512     1587 1
    1074     1385     1785 1
    1075      638     1465 1
    1076     1668     1683 1
    1077     1497     1687 1
    1078      160     1253 1
    1079     1248     1330 1
    1080      619     1559 1
    1081     1009     1719 1
    1082      285     1126 1
    1083      622     1477 1
    1084      772     1690 1
    1085      883     1077 1
    1086      435      936 1
    1087      142     1260 1
    1088      106      509 1
    1089      693     1405 1
    1090      489     1364 1
    1091      354     1389 1
    1092      344     1343 1
    1093      142     1421 1
    1094      640     1676 1
    1095      979     1318 1
    1096       91      369 1
    1097      791     1455 1
    1098      742      818 1
    1099       28     1167 1
    1100       54     1033 1
    1101     1136     1239 1
    1102     1131     1450 1
    1103      392      898 1
    1104      811     1767 1
    1105      429     1275 1
    1106      857     1159 1
    1107      192      740 1
    1108     1090     1294 1
    1109        9      611 1
    1110      717     1337 1
    1111      803      959 1
    1112      210      776 1
    1113     1148     1479 1
    1114      158     1372 1
    1115       91     1685 1
    1116      142      961 1
    1117      702     1415 1
    1118      140      335 1
    1119      273     1206 1
    1120      395     1196 1
    1121      343     1731 1
    1122      628     1040 1
    1123     1334     1535 1
    1124      311      396 1
    1125      904     1347 1
    1126     1308     1583 1
    1127      691     1306 1
    1128      241      938 1
    1129      910     1180 1
    1130      482     1245 1
    1131      244     1065 1
    1132      275      798 1
    1133      195     1449 1
    1134      104      303 1
    1135       17     1559 1
    1136      940     1228 1
    1137      136      782 1
    1138      495     1207 1
    1139      681     1079 1
    1140      817     1173 1
    1141      188     1258 1
    1142      826      906 1
    1143      381      572 1
    1144      452     1298 1
    1145     1333     1616 1
    1146      103     1179 1
    1147      446     1049 1
    1148      971     1276 1
    1149      236     1603 1
    1150      386      500 1
    1151      395      894 1
    1152        4      737 1
    1153      362      934 1
    1154      391     1363 1
    1155      903     1527 1
    1156      127     1623 1
    1157      339     1071 1
    1158     1155     1252 1
    1159      873     1492 1
    1160        7     1057 1
    1161     1438     1630 1
    1162      296     1433 1
    1163        5      572 1
    1164     1389     1776 1
    1165     1623     1645 1
    1166      413      918 1
    1167      166     1471 1
    1168      850     1461 1
    1169     1527     1780 1
    1170      485      764 1
    1171      739      807 1
    1172      556     1593 1
    1173      561      988 1
    1174      226      609 1
    1175      998     1438 1
    1176     1213     1773 1
    1177      527      771 1
    1178       54     1733 1
    1179       10     1362 1
    1180       31     1751 1
    1181      701      888 1
    1182      343      733 1
    1183      818     1386 1
    1184       57     1030 1
    1185      793      899 1
    1186       71     1165 1
    1187      432      958 1
    1188      459     1089 1
    1189      494      859 1
    1190      255      460 1
    1191      584      692 1
    1192      120     1328 1
    1193      106     1124 1
    1194     1419     1688 1
    1195      263      813 1
    1196     1040     1759 1
    1197      664      791 1
    1198      841     1157 1
    1199       91     1427 1
    1200      259      334 1
    1201      343     1128 1
    1202      147     1574 1
    1203     1174     1579 1
    1204      765     1065 1
    1205      388     1140 1
    1206      411      965 1
    1207      114     1003 1
    1208      747     1271 1
    1209      413     1411 1
    1210      550      565 1
    1211      684     1232 1
    1212     1393     1634 1
    1213      641     1117 1
    1214      742     1490 1
    1215      200     1634 1
    1216      889     1733 1
    1217      967     1472 1
    1218      586     1285 1
    1219     1188     1219 1
    1220      928     1691 1
    1221     1305     1546 1
    1222     1068     1663 1
    1223      492     1294 1
    1224      264      853 1
    1225      359     1247 1
    1226     1099     1604 1
    1227      192      614 1
    1228      220     1296 1
    1229      256      328 1
    1230       37     1024 1
    1231      317      560 1
    1232      362     1526 1
    1233      500      590 1
    1234      108      468 1
    1235      326      764 1
    1236      847     1012 1
    1237     1609     1761 1
    1238      380     1699 1
    1239     1031     1246 1
    1240     1346     1388 1
    1241        4      587 1
    1242      314     1005 1
    1243      427      678 1
    1244     1020     1499 1
    1245       26       32 1
    1246      113      427 1
    1247      824     1483 1
    1248      926     1720 1
    1249       29      351 1
    1250     1431     1772 1
    1251      677      695 1
    1252      597     1280 1
    1253      203      328 1
    1254      700     1235 1
    1255      616     1338 1
    1256      420     1616 1
    1257     1406     1756 1
    1258      675      971 1
    1259      235      288 1
    1260      113      308 1
    1261     1338     1782 1
    1262     1201     1762 1
    1263      173     1417 1
    1264      254     1007 1
    1265       26      946 1
    1266      851      872 1
    1267       73      852 1
    1268      435     1622 1
    1269      560     1239 1
    1270      401      829 1
    1271      835      857 1
    1272      136      346 1
    1273      918     1472 1
    1274      253      432 1
    1275      454      624 1
    1276      337     1641 1
    1277      286     1435 1
    1278      735     1314 1
    1279      130     1664 1
    1280      885     1394 1
    1281       76     1683 1
    1282     1756     1762 1
    1283      803     1036 1
    1284      162     1219 1
    1285      243      814 1
    1286      752      867 1
    1287     1482     1545 1
    1288       43      960 1
    1289      404      813 1
    1290      673      969 1
    1291      642     1776 1
    1292      731     1125 1
    1293      441      653 1
    1294      950     1514 1
    1295      370     1203 1
    1296      210      637 1
    1297       20      159 1
    1298      350     1103 1
    1299      639     1241 1
    1300     1113     1662 1
    1301     1321     1564 1
    1302     1539     1746 1
    1303       22      403 1
    1304      214      360 1
    1305      219      908 1
    1306     1050     1248 1
    1307       83      513 1
    1308      129     1581 1
    1309     1255     1270 1
    1310      270      664 1
    1311      440     1057 1
    1312      566     1461 1
    1313       24      504 1
    1314     1240     1787 1
    1315      488      837 1
    1316      534     1274 1
    1317       34     1681 1
    1318      627      903 1
    1319      364     1075 1
    1320      694     1532 1
    1321      201      400 1
    1322      383     1689 1
    1323      710     1676 1
    1324      155     1037 1
    1325      660      860 1
    1326      524      547 1
    1327      487     1057 1
    1328     1395     1500 1
    1329      112     1199 1
    1330      303     1418 1
    1331      853     1184 1
    1332      480     1345 1
    1333      265      567 1
    1334      291     1188 1
    1335      153      740 1
    1336     1051     1305 1
    1337       68      472 1
    1338      608     1730 1
    1339      292     1242 1
    1340      885     1595 1
    1341      117      701 1
    1342      715      899 1
    1343      345      611 1
    1344      662      919 1
    1345      423      917 1
    1346      607     1592 1
    1347     1458     1718 1
    1348      875     1774 1
    1349     1206     1267 1
    1350       20     1526 1
    1351      769     1240 1
    1352     1025     1454 1
    1353      786     1397 1
    1354      829     1637 1
    1355      151      646 1
    1356     1475     1528 1
    1357     1375     1602 1
    1358      194     1736 1
    1359      545     1239 1
    1360      106     1139 1
    1361      493     1271 1
    1362      118     1713 1
    1363     1515     1656 1
    1364       62      263 1
    1365     1223     1320 1
    1366      406     1542 1
    1367     1028     1218 1
    1368     1216     1465 1
    1369     1360     1698 1
    1370      642      663 1
    1371      803     1523 1
    1372      796     1399 1
    1373     1280     1584 1
    1374      446      476 1
    1375      183      543 1
    1376      201     1326 1
    1377      350     1676 1
    1378      184     1225 1
    1379      380      639 1
    1380       11     1089 1
    1381      221      802 1
    1382      876     1146 1
    1383      981     1101 1
    1384     1072     1254 1
    1385      688     1783 1
    1386      385     1412 1
    1387      291     1191 1
    1388      342     1559 1
    1389      772     1446 1
    1390     1124     1492 1
    1391     1232     1700 1
    1392      294     1028 1
    1393     1015     1313 1
    1394      505     1261 1
    1395     1125     1297 1
    1396      519     1266 1
    1397      926     1474 1
    1398       72      924 1
    1399      310     1039 1
    1400     1189     1676 1
    1401      722      957 1
    1402     1095     1338 1
    1403      453      926 1
    1404      441     1732 1
    1405      290     1249 1
    1406       76     1148 1
    1407      229     1005 1
    1408      196     1398 1
    1409     1251     1771 1
    1410      615     1034 1
    1411      313     1699 1
    1412      220     1359 1
    1413      573      883 1
    1414     1172     1173 1
    1415     1082     1617 1
    1416      929     1459 1
    1417      827     1777 1
    1418     1151     1680 1
    1419      414      988 1
    1420       29       75 1
    1421      101     1505 1
    1422       75     1389 1
    1423      179      565 1
    1424      533      980 1
    1425      525      856 1
    1426      581     1135 1
    1427      132     1253 1
    1428      549     1649 1
    1429     1598     1782 1
    1430      175      687 1
    1431      198     1347 1
    1432      500     1106 1
    1433      791      893 1
    1434       43      995 1
    1435      549      820 1
    1436      368     1758 1
    1437      304      994 1
    1438      122      456 1
    1439      993     1562 1
    1440      244      660 1
    1441      801      812 1
    1442     1275     1540 1
    1443      138      435 1
    1444      687      699 1
    1445      490     1029 1
    1446      798     1291 1
    1447      495      708 1
    1448      841     1458 1
    1449     1120     1524 1
    1450      507      829 1
    1451      931     1293 1
    1452      184      894 1
    1453      247      656 1
    1454       48      982 1
    1455     1011     1200 1
    1456      850     1098 1
    1457     1306     1495 1
    1458      257      460 1
    1459      141     1298 1
    1460     1044     1678 1
    1461       50      195 1
    1462      831     1095 1
    1463       33      425 1
    1464      324      478 1
    1465      124     1182 1
    1466      124      706 1
    1467     1010     1638 1
    1468      516     1351 1
    1469      596      729 1
    1470       80     1760 1
    1471      847     1466 1
    1472      947     1166 1
    1473      118     1322 1
    1474     1011     1421 1
    1475     1476     1661 1
    1476       41      237 1
    1477      671      991 1
    1478      724      879 1
    1479      626     1402 1
    1480      108      857 1
    1481      769     1386 1
    1482      508      814 1
    1483      323     1272 1
    1484       12     1781 1
    1485      284     1705 1
    1486     1142     1483 1
    1487      125     1539 1
    1488     1289     1406 1
    1489      155      914 1
    1490      178     1096 1
    1491     1158     1234 1
    1492     1031     1762 1
    1493      599     1021 1
    1494     1271     1581 1
    1495      673     1485 1
    1496      846     1395 1
    1497      120     1573 1
    1498      598     1093 1
    1499      146      988 1
    1500     1449     1691 1
    1501      821     1518 1
    1502      916     1272 1
    1503      746      944 1
    1504      178      953 1
    1505      557     1104 1
    1506      413      632 1
    1507      216     1242 1
    1508      976     1463 1
    1509      217     1235 1
    1510      459      882 1
    1511      679     1516 1
    1512       10      451 1
    1513      951     1110 1
    1514      296      766 1
    1515      638      937 1
    1516       78      759 1
    1517      148     1088 1
    1518      463     1272 1
    1519      786     1209 1
    1520      849     1528 1
    1521      667      880 1
    1522      724     1308 1
    1523      930     1150 1
    1524      211     1129 1
    1525     1545     1704 1
    1526      895     1103 1
    1527     1113     1516 1
    1528      570     1085 1
    1529      120      762 1
    1530      746     1431 1
    1531      361      683 1
    1532      754     1141 1
    1533      767     1284 1
    1534      933     1069 1
    1535      856     1160 1
    1536      856     1181 1
    1537       80      498 1
    1538      820     1384 1
    1539      441     1370 1
    1540     1126     1239 1
    1541      329      838 1
    1542      907     1224 1
    1543     1348     1612 1
    1544       20      869 1
    1545       15      156 1
    1546     1165     1225 1
    1547     1017     1090 1
    1548      191     1158 1
    1549       90     1609 1
    1550      568     1228 1
    1551      415     1430 1
    1552      628     1442 1
    1553      642     1204 1
    1554      266      635 1
    1555      157     1047 1
    1556      557     1278 1
    1557      189      784 1
    1558      948     1592 1
    1559      261      845 1
    1560       23      140 1
    1561      344     1569 1
    1562      556     1319 1
    1563       33      712 1
    1564      189     1666 1
    1565      613     1556 1
    1566      140      832 1
    1567      276      997 1
    1568      820      927 1
    1569      143      800 1
    1570     1082     1563 1
    1571      247      593 1
    1572        6     1647 1
    1573      977     1520 1
    1574      783     1765 1
    1575      286     1392 1
    1576      450     1583 1
    1577      285     1735 1
    1578       85     1262 1
    1579     1082     1657 1
    1580     1436     1541 1
    1581     1317     1571 1
    1582      247     1560 1
    1583      214     1670 1
    1584       86      537 1
    1585     1035     1341 1
    1586     1453     1777 1
    1587     1212     1378 1
    1588      396     1214 1
    1589       24      840 1
    1590      719     1390 1
    1591     1042     1453 1
    1592      110     1677 1
    1593      383     1212 1
    1594     1594     1740 1
    1595      887     1340 1
    1596      787     1234 1
    1597      338     1373 1
    1598     1097     1693 1
    1599     1584     1647 1
    1600      724      779 1
    1601      543     1494 1
    1602     1349     1591 1
    1603      309      875 1
    1604     1143     1672 1
    1605     1360     1502 1
    1606      120     1428 1
    1607      756     1664 1
    1608      737     1655 1
    1609      691      785 1
    1610     1140     1734 1
    1611      310     1748 1
    1612     1758     1769 1
    1613      528      730 1
    1614      757     1650 1
    1615      428     1673 1
    1616      835     1213 1
    1617     1039     1443 1
    1618      194     1149 1
    1619     1292     1494 1
    1620     1361     1783 1
    1621     1330     1351 1
    1622      692     1478 1
    1623      432     1300 1
    1624      393      460 1
    1625     1279     1452 1
    1626      268     1729 1
    1627     1471     1749 1
    1628       22      129 1
    1629     1464     1668 1
    1630      162     1605 1
    1631       16     1403 1
    1632      231     1026 1
    1633      574      964 1
    1634     1262     1339 1
    1635      139      660 1
    1636        8     1025 1
    1637      630      804 1
    1638      704     1480 1
    1639      977     1196 1
    1640      262     1684 1
    1641      874      922 1
    1642     1470     1531 1
    1643      566      583 1
    1644      227      548 1
    1645      326     1758 1
    1646      216      510 1
    1647      528      606 1
    1648      332     1781 1
    1649      241     1657 1
    1650      565     1119 1
    1651     1174     1709 1
    1652      263      382 1
    1653     1153     1673 1
    1654      659     1677 1
    1655     1353     1783 1
    1656      983     1740 1
    1657      467      865 1
    1658      216     1145 1
    1659     1511     1771 1
    1660      419     1309 1
    1661     1175     1326 1
    1662       70     1113 1
    1663        6       87 1
    1664      566     1422 1
    1665      657     1770 1
    1666      193     1005 1
    1667      352     1748 1
    1668      260      623 1
    1669      679     1420 1
    1670      219     1094 1
    1671      874     1510 1
    1672      358      717 1
    1673      464      897 1
    1674      271     1115 1
    1675      400     1008 1
    1676      952     1329 1
    1677      339      940 1
    1678      804     1611 1
    1679      418     1341 1
    1680      247      470 1
    1681      555      692 1
    1682     1301     1786 1
    1683       66     1174 1
    1684      209     1539 1
    1685      965     1746 1
    1686     1440     1510 1
    1687      505     1729 1
    1688       83      698 1
    1689      617     1673 1
    1690      446      858 1
    1691      881     1230 1
    1692       52     1463 1
    1693      205      461 1
    1694      292     1146 1
    1695      972     1770 1
    1696        5     1051 1
    1697     1014     1403 1
    1698      297     1213 1
    1699      258      780 1
    1700      129     1749 1
    1701      731      872 1
    1702      349     1691 1
    1703      956     1508 1
    1704      381     1489 1
    1705      527     1328 1
    1706     1054     1671 1
    1707     1407     1528 1
    1708      608     1244 1
    1709     1719     1736 1
    1710      225     1206 1
    1711      658     1660 1
    1712      684     1147 1
    1713       34      739 1
    1714      689     1028 1
    1715      554     1314 1
    1716      340      593 1
    1717      652      801 1
    1718      563      912 1
    1719      454     1329 1
    1720      748     1397 1
    1721      831     1600 1
    1722      330      427 1
    1723      187      370 1
    1724      390     1248 1
    1725      445     1531 1
    1726      372     1064 1
    1727      456     1184 1
    1728      131     1109 1
    1729      397     1006 1
    1730      331      462 1
    1731     1346     1575 1
    1732     1572     1700 1
    1733     1006     1413 1
    1734     1475     1505 1
    1735      409     1511 1
    1736     1369     1372 1
    1737      563     1255 1
    1738     1025     1276 1
    1739     1048     1286 1
    1740      501     1774 1
    1741      917     1544 1
    1742      268      532 1
    1743      354      383 1
    1744      716     1468 1
    1745       12      472 1
    1746      946      963 1
    1747      699     1268 1
    1748      965     1635 1
    1749      469      703 1
    1750      943     1517 1
    1751      533     1593 1
    1752      531     1317 1
    1753       99     1523 1
    1754      788      962 1
    1755      329      518 1
    1756      365     1226 1
    1757       79      394 1
    1758      116     1203 1
    1759      214     1336 1
    1760       87      222 1
    1761     1127     1755 1
    1762     1161     1663 1
    1763      182     1542 1
    1764     1531     1660 1
    1765       27     1311 1
    1766      481     1471 1
    1767      579      919 1
    1768      495      655 1
    1769      815     1694 1
    1770      616     1254 1
    1771      437     1214 1
    1772      270      774 1
    1773      215      331 1
    1774      580     1100 1
    1775      551     1097 1
    1776      161      365 1
    1777      296     1760 1
    1778      845     1466 1
    1779      231     1050 1
    1780      708     1086 1
    1781      152     1314 1
    1782      680     1275 1
    1783      810      920 1
    1784     1244     1368 1
    1785       39     1531 1
    1786      286     1557 1
    1787       32     1619 1
    1788     1164     1770 1
    1789      537     1629 1
    1790      157     1348 1
    1791     1218     1246 1
    1792       63       98 1
    1793      174      213 1
    1794      372     1344 1
    1795       98     1496 1
    1796      164     1143 1
    1797      898     1462 1
    1798      887     1398 1
    1799      658     1128 1
    1800      727     1063 1
    1801      675     1298 1
    1802      999     1364 1
    1803      562      906 1
    1804      720     1262 1
    1805      348     1450 1
    1806      836     1423 1
    1807      432     1513 1
    1808      588     1684 1
    1809      759     1603 1
    1810      202     1262 1
    1811      498      568 1
    1812      417     1548 1
    1813      753     1707 1
    1814      734     1620 1
    1815      407     1498 1
    1816      118     1755 1
    1817      213      971 1
    1818      614     1695 1
    1819      105     1498 1
    1820      450     1101 1
    1821      270      281 1
    1822      619      694 1
    1823     1270     1639 1
    1824      202     1734 1
    1825      679     1429 1
    1826      811     1636 1
    1827      170     1243 1
    1828      728     1100 1
    1829      393      679 1
    1830      223      911 1
    1831     1557     1668 1
    1832     1180     1410 1
    1833     1034     1041 1
    1834      589      827 1
    1835      381     1750 1
    1836      810     1426 1
    1837      223      440 1
    1838     1089     1522 1
    1839      328     1169 1
    1840     1144     1171 1
    1841     1056     1285 1
    1842      942     1257 1
    1843      514     1118 1
    1844     1115     1187 1
    1845      378     1053 1
    1846       90      394 1
    1847      321      599 1
    1848       60     1097 1
    1849      654     1713 1
    1850      103     1087 1
    1851     1309     1391 1
    1852      737     1316 1
    1853      508      834 1
    1854      538     1512 1
    1855      921     1397 1
    1856      183      778 1
    1857       13     1244 1
    1858      144     1039 1
    1859      298     1194 1
    1860     1195     1520 1
    1861      504      915 1
    1862      942     1763 1
    1863      738     1191 1
    1864      503     1783 1
    1865      618     1004 1
    1866      656     1047 1
    1867      777      997 1
    1868      277     1022 1
    1869      825     1714 1
    1870      578     1566 1
    1871      852     1175 1
    1872      576     1431 1
    1873     1177     1679 1
    1874      622      845 1
    1875     1230     1717 1
    1876     1258     1422 1
    1877     1386     1456 1
    1878     1267     1598 1
    1879     1629     1709 1
    1880     1079     1640 1
    1881     1127     1500 1
    1882      863     1539 1
    1883     1125     1741 1
    1884      980     1715 1
    1885      951     1294 1
    1886      764     1727 1
    1887      905      943 1
    1888     1118     1265 1
    1889      267      490 1
    1890     1235     1550 1
    1891      237      736 1
    1892      958     1284 1
    1893      942     1752 1
    1894      524      861 1
    1895      224      365 1
    1896     1195     1604 1
    1897      227     1118 1
    1898      590      701 1
    1899      325      665 1
    1900      471     1404 1
    1901        1      221 1
    1902      737     1068 1
    1903      126      481 1
    1904       80      509 1
    1905     1127     1315 1
    1906      677     1377 1
    1907      449      639 1
    1908       76     1221 1
    1909      259      776 1
    1910      991     1633 1
    1911      705     1011 1
    1912      785     1152 1
    1913      734     1763 1
    1914      391      462 1
    1915      290     1072 1
    1916       15      604 1
    1917     1061     1065 1
    1918      990     1775 1
    1919      184      836 1
    1920     1521     1586 1
    1921      871      990 1
    1922      801     1727 1
    1923      426     1609 1
    1924      795     1143 1
    1925     1603     1645 1
    1926      238      605 1
    1927     1396     1473 1
    1928      336     1662 1
    1929       38     1379 1
    1930      316     1273 1
    1931       43      476 1
    1932      770     1186 1
    1933      387     1748 1
    1934      146     1726 1
    1935      268      615 1
    1936      705     1556 1
    1937      308      738 1
    1938     1364     1597 1
    1939      599      969 1
    1940      531      869 1
    1941      223      349 1
    1942      598      978 1
    1943      103      900 1
    1944      910     1264 1
    1945       32      492 1
    1946      773      931 1
    1947      627     1451 1
    1948       86      229 1
    1949      475     1771 1
    1950       19     1155 1
    1951     1116     1512 1
    1952      953     1120 1
    1953      771      993 1
    1954      693     1350 1
    1955       57      281 1
    1956     1699     1752 1
    1957     1450     1723 1
    1958      167     1123 1
    1959      171      630 1
    1960      686      862 1
    1961      267     1382 1
    1962      645      744 1
    1963     1264     1306 1
    1964      124      551 1
    1965      131      196 1
    1966      898     1614 1
    1967       33     1041 1
    1968      638      892 1
    1969        3     1378 1
    1970       17       69 1
    1971      286     1566 1
    1972       73     1367 1
    1973      962     1506 1
    1974       99      377 1
    1975      211     1053 1
    1976       65     1595 1
    1977      837     1507 1
    1978     1055     1765 1
    1979      816     1625 1
    1980     1046     1781 1
    1981      925     1541 1
    1982      558     1408 1
    1983      710      817 1
    1984      309      772 1
    1985      765     1235 1
    1986      878     1616 1
    1987      722      993 1
    1988      221     1229 1
    1989      787      868 1
    1990      126     1061 1
    1991      635      681 1
    1992      422      454 1
    1993     1195     1767 1
    1994     1107     1770 1
    1995     1018     1626 1
    1996     1150     1416 1
    1997     1159     1708 1
    1998       27     1403 1
    1999        1     1253 1
    2000       11      178 1
    2001      457      517 1
    2002      526     1631 1
    2003      106     1163 1
    2004      226     1434 1
    2005      483     1241 1
    2006       94     1781 1
    2007      594      943 1
    2008       49     1625 1
    2009      834     1614 1
    2010      915     1705 1
    2011     1077     1548 1
    2012      288     1487 1
    2013     1356     1617 1
    2014      558     1738 1
    2015      709     1366 1
    2016      167     1606 1
    2017      515      862 1
    2018      923     1515 1
    2019     1304     1613 1
    2020     1069     1787 1
    2021     1071     1585 1
    2022      841     1243 1
    2023      412     1521 1
    2024      232      988 1
    2025      697      788 1
    2026      364     1606 1
    2027     1076     1340 1
    2028      700     1536 1
    2029      667     1607 1
    2030      168     1311 1
    2031      714     1101 1
    2032     1158     1187 1
    2033      137     1023 1
    2034     1048     1318 1
    2035      519      970 1
    2036      842     1739 1
    2037     1059     1063 1
    2038      164      479 1
    2039      477      822 1
    2040     1172     1596 1
    2041      834     1337 1
    2042      506     1110 1
    2043      298     1455 1
    2044      620     1574 1
    2045      204      635 1
    2046     1277     1298 1
    2047      208     1132 1
    2048      687     1078 1
    2049      932      984 1
    2050      605      991 1
    2051       25     1621 1
    2052      386     1000 1
    2053      389      965 1
    2054      649     1310 1
    2055      649     1365 1
    2056      261      598 1
    2057      865     1083 1
    2058      646     1452 1
    2059     1100     1332 1
    2060       64      614 1
    2061     1331     1572 1
    2062       77      413 1
    2063       30      867 1
    2064      242     1366 1
    2065      448      592 1
    2066       85     1403 1
    2067      174     1345 1
    2068      888     1301 1
    2069      582      719 1
    2070      975     1505 1
    2071      612      614 1
    2072     1054     1469 1
    2073     1240     1480 1
    2074      456     1151 1
    2075      279      372 1
    2076      739      974 1
    2077      194     1036 1
    2078      778     1699 1
    2079      762     1708 1
    2080     1498     1741 1
    2081      944      987 1
    2082     1427     1701 1
    2083      167     1296 1
    2084      461     1092 1
    2085      984     1306 1
    2086      647      885 1
    2087      634     1499 1
    2088      163      618 1
    2089      982     1322 1
    2090      200      919 1
    2091       87     1078 1
    2092      974      998 1
    2093      866     1661 1
    2094      546      882 1
    2095      421     1071 1
    2096      817     1464 1
    2097      175     1320 1
    2098     1137     1651 1
    2099        5     1560 1
    2100      907     1121 1
    2101      524     1546 1
    2102      913     1630 1
    2103       81      924 1
    2104      518     1191 1
    2105      249     1055 1
    2106       45     1060 1
    2107      889      973 1
    2108      800      939 1
    2109      695     1521 1
    2110      344      650 1
    2111     1268     1652 1
    2112     1254     1608 1
    2113      957     1420 1
    2114      791     1476 1
    2115      900     1348 1
    2116     1638     1725 1
    2117      265      335 1
    2118      295     1348 1
    2119       24      117 1
    2120     1103     1448 1
    2121      422     1412 1
    2122      174     1164 1
    2123     1230     1599 1
    2124      341     1591 1
    2125     1363     1629 1
    2126      661     1479 1
    2127      553     1410 1
    2128      300      496 1
    2129      946     1220 1
    2130       69     1597 1
    2131      456      960 1
    2132      522     1321 1
    2133      986     1414 1
    2134      141     1150 1
    2135     1423     1568 1
    2136      899     1439 1
    2137      922     1509 1
    2138      697      844 1
    2139      280      949 1
    2140      618      987 1
    2141      387     1477 1
    2142      170      278 1
    2143      479     1252 1
    2144     1188     1251 1
    2145      653      719 1
    2146     1161     1346 1
    2147      823      932 1
    2148      176      378 1
    2149      444     1285 1
    2150     1014     1598 1
    2151      933     1354 1
    2152      866     1623 1
    2153     1120     1249 1
    2154      194      511 1
    2155      534      548 1
    2156      754     1293 1
    2157      629     1508 1
    2158      796     1001 1
    2159      139      946 1
    2160      162     1052 1
    2161      755      915 1
    2162      783     1198 1
    2163      528      794 1
    2164      711     1533 1
    2165      324     1297 1
    2166      466     1481 1
    2167      636     1450 1
    2168      248     1193 1
    2169      442     1154 1
    2170       25      204 1
    2171       38     1659 1
    2172     1156     1535 1
    2173       21      763 1
    2174     1519     1571 1
    2175      306     1206 1
    2176     1294     1784 1
    2177      408     1205 1
    2178      282      331 1
@<TRIPOS>SUBSTRUCTURE
       1 RES             1 RESIDUE    0 **** ROOT      0
