@<TRIPOS>MOLECULE
RES
2106 2582 1 0 1
SMALL
NO_CHARGES
@<TRIPOS>CRYSIN
   50.0000    50.0000    20.0300    90.0000    90.0000    90.0000  1  1
@<TRIPOS>ATOM
       1 O           39.3280    24.2340     3.1580 O             1 RES     
       2 O            8.4580    48.5390     6.1960 O             1 RES     
       3 O            9.9370    34.3450     9.7080 O             1 RES     
       4 O           27.9310    20.9500     2.9650 O             1 RES     
       5 Si          34.0510    21.9090     6.4800 Si            1 RES     
       6 O           31.4160    17.1410     7.9150 O             1 RES     
       7 O            7.4230    25.4710     6.7820 O             1 RES     
       8 O           47.1120     3.1090     5.5400 O             1 RES     
       9 O           32.8980     7.8050     9.9470 O             1 RES     
      10 Si          38.7810    11.9610     4.5220 Si            1 RES     
      11 O           25.3700     1.5880    12.7280 O             1 RES     
      12 O           28.2200     7.4620    11.4690 O             1 RES     
      13 O           41.5420    22.2820     9.1930 O             1 RES     
      14 O           31.7550     1.9730    13.4760 O             1 RES     
      15 Si           1.2140    26.3900     3.6200 Si            1 RES     
      16 O           32.1660    42.1050     9.0280 O             1 RES     
      17 O           26.2930    46.3710     7.6460 O             1 RES     
      18 O           17.5360    25.3840     7.5700 O             1 RES     
      19 O           45.4190    33.1370    12.1080 O             1 RES     
      20 Si          37.4340     4.1390     8.1680 Si            1 RES     
      21 O           35.4360    32.8570     8.7280 O             1 RES     
      22 O           23.7070    24.5910     4.9950 O             1 RES     
      23 Si           7.6290    42.0460    14.5770 Si            1 RES     
      24 Si          18.9430    40.9130    13.6300 Si            1 RES     
      25 O            9.6650    31.9680     5.7910 O             1 RES     
      26 Si          45.4860    22.8860    10.2000 Si            1 RES     
      27 Si          19.9930    18.2280    12.3350 Si            1 RES     
      28 O           24.5250    30.7410     7.9630 O             1 RES     
      29 O           32.6640    41.9310    11.4990 O             1 RES     
      30 O            6.5590    27.3500     5.0100 O             1 RES     
      31 Si           8.9520    33.0600     4.9870 Si            1 RES     
      32 O           40.1130    25.9410     9.7650 O             1 RES     
      33 O           20.6210    37.5380     6.4480 O             1 RES     
      34 Si          24.6920    29.4830     6.9840 Si            1 RES     
      35 Si          19.3940    15.7420     5.6330 Si            1 RES     
      36 O           29.8760    11.7970     6.2890 O             1 RES     
      37 O           37.9360    30.6050     3.1040 O             1 RES     
      38 O           49.3000    43.1650     4.7740 O             1 RES     
      39 O           49.2410    15.4300     8.7790 O             1 RES     
      40 Si          16.0040    25.6960     7.5250 Si            1 RES     
      41 O           10.2360     3.4110     9.6970 O             1 RES     
      42 O           43.4210    28.2730     6.3950 O             1 RES     
      43 O            0.1870    40.6520     3.9740 O             1 RES     
      44 O           11.9330    36.8760     3.0060 O             1 RES     
      45 Si          43.8870     0.3740     7.3530 Si            1 RES     
      46 O           23.3580    12.3080    11.7210 O             1 RES     
      47 OS          46.3330    21.9160    14.2350 OS            1 RES     
      48 Si          25.3870    41.5760    12.4880 Si            1 RES     
      49 O           46.0860    21.2950     7.0170 O             1 RES     
      50 O           21.7340     6.6160     4.3500 O             1 RES     
      51 O           23.6280    38.4180    11.4120 O             1 RES     
      52 O           48.4240    30.3200     6.4430 O             1 RES     
      53 O           14.8410    23.7240    11.1040 O             1 RES     
      54 O           13.8720     7.7270     8.0010 O             1 RES     
      55 O           42.9320    35.6550     5.0210 O             1 RES     
      56 Si          14.9580    22.2990    11.7660 Si            1 RES     
      57 Si           1.3660    23.9370     5.4410 Si            1 RES     
      58 O           17.8410    37.7820    13.0870 O             1 RES     
      59 O            2.1070    45.4170     9.4240 O             1 RES     
      60 Si          23.7100    28.9220    12.3920 Si            1 RES     
      61 O           38.9530    35.4330    11.0830 O             1 RES     
      62 O           18.9750    37.1960     8.6150 O             1 RES     
      63 O           20.4090    49.8920     4.6600 O             1 RES     
      64 O           45.0010    36.9310    13.7540 O             1 RES     
      65 O           46.3590    38.6730     9.4100 O             1 RES     
      66 Si          30.3630    42.9570     3.6210 Si            1 RES     
      67 Si          47.8950    43.8810     5.0840 Si            1 RES     
      68 O           21.7380    45.4450     8.6830 O             1 RES     
      69 O           29.7260    34.7920    11.3840 O             1 RES     
      70 O           28.0750     5.0820    10.5820 O             1 RES     
      71 O           21.1570    46.3070    14.3630 O             1 RES     
      72 Si          24.9300    47.1050     7.6980 Si            1 RES     
      73 O           49.2420    47.3080     4.1190 O             1 RES     
      74 OS           9.9970    49.0200    15.3030 OS            1 RES     
      75 O           19.3630    42.3460    13.2480 O             1 RES     
      76 O           42.6700    39.8890    13.3630 O             1 RES     
      77 O           30.4550     7.1310    10.0400 O             1 RES     
      78 Si          23.1700     7.2460     4.4180 Si            1 RES     
      79 O           22.6910    40.0080     9.8390 O             1 RES     
      80 O            9.2430    34.4260     5.6130 O             1 RES     
      81 Si          35.9510    45.0840     7.4200 Si            1 RES     
      82 O           13.0020    14.6690    10.0680 O             1 RES     
      83 Si          22.3030    18.2180     3.4300 Si            1 RES     
      84 O           38.6920    44.6600     9.9650 O             1 RES     
      85 Si           5.3750    36.6310     5.4460 Si            1 RES     
      86 O            8.7770    41.0120    14.1070 O             1 RES     
      87 O           31.6610     6.9240     7.6810 O             1 RES     
      88 O            2.1040    44.4950    11.9170 O             1 RES     
      89 O           10.2660     3.2190    12.0870 O             1 RES     
      90 O           33.2710    37.6820     4.3090 O             1 RES     
      91 O            2.5230    37.1640    12.4500 O             1 RES     
      92 O           34.7990    41.8550    10.2240 O             1 RES     
      93 Si          40.6200    48.9560    13.0040 Si            1 RES     
      94 Si          20.4020    45.1770     4.5950 Si            1 RES     
      95 Si          30.0820    17.9670     7.9450 Si            1 RES     
      96 O           30.5780    43.3520     7.2540 O             1 RES     
      97 O           19.3900    32.4830    10.8440 O             1 RES     
      98 O           38.7970    47.0110    10.9690 O             1 RES     
      99 Si          39.4990    19.3740     8.7080 Si            1 RES     
     100 Si           3.8240    29.5800     7.9930 Si            1 RES     
     101 O           26.1210     8.9700    12.5670 O             1 RES     
     102 O           37.3440     8.4030     7.9400 O             1 RES     
     103 O           15.1020    37.0500     8.0510 O             1 RES     
     104 O            9.6790     3.5510     2.8980 O             1 RES     
     105 O           31.5790    43.9430     3.5960 O             1 RES     
     106 Si          35.8900    12.3490     5.6510 Si            1 RES     
     107 O            4.2640     9.0260     4.7800 O             1 RES     
     108 O           44.0270    15.3980     4.9560 O             1 RES     
     109 O           38.3090    33.0360    11.9640 O             1 RES     
     110 Si          32.8510    29.5180    12.2650 Si            1 RES     
     111 O           22.9350    41.4540     7.9210 O             1 RES     
     112 O           30.0370    49.7050     3.3810 O             1 RES     
     113 Si           3.5000    38.7530     4.4320 Si            1 RES     
     114 O           38.2010    10.6540     7.5920 O             1 RES     
     115 O            9.7210    44.1600     8.4230 O             1 RES     
     116 O           38.4650    25.9060     8.1340 O             1 RES     
     117 O            6.0940    16.2190     8.6880 O             1 RES     
     118 Si          35.5490    30.0700    13.5290 Si            1 RES     
     119 OS          19.4890    24.5230    14.7060 OS            1 RES     
     120 O           41.3560    36.3370    10.0850 O             1 RES     
     121 Si          15.1630    35.7140     7.3010 Si            1 RES     
     122 O            7.6490    16.0520    13.1470 O             1 RES     
     123 O           31.1850     7.8320     5.0870 O             1 RES     
     124 O           24.1550    46.1000     8.5750 O             1 RES     
     125 O            8.2810     6.0230    12.1260 O             1 RES     
     126 Si           5.4560     7.3650    14.2420 Si            1 RES     
     127 O           45.3310    24.4320     9.8760 O             1 RES     
     128 Si          25.6960    37.4590     8.8510 Si            1 RES     
     129 O            2.2070    13.1450    12.8520 O             1 RES     
     130 Si          15.9380    32.7240     8.1010 Si            1 RES     
     131 Si           7.5200    44.1720    12.3700 Si            1 RES     
     132 O           30.4440    23.0700     5.2210 O             1 RES     
     133 O           46.7050    47.7370     5.0130 O             1 RES     
     134 OS          13.2410    47.3600    14.7350 OS            1 RES     
     135 O           11.4490     7.4630     8.7760 O             1 RES     
     136 Si          23.7950     1.6760     6.8390 Si            1 RES     
     137 Si          29.4070    14.1440    12.7720 Si            1 RES     
     138 O            2.8600    30.0720     9.2260 O             1 RES     
     139 OS          39.9800    19.6340    14.9860 OS            1 RES     
     140 Si          21.9800    30.9280     3.3940 Si            1 RES     
     141 O           24.3500    18.9630     7.6670 O             1 RES     
     142 O            8.7010    16.3040     2.2870 O             1 RES     
     143 Si          22.5320    25.0840     4.1390 Si            1 RES     
     144 O            3.2820     9.1310    10.0050 O             1 RES     
     145 Si          18.5560    33.6670    11.4620 Si            1 RES     
     146 O           39.1110    21.6780     2.3750 O             1 RES     
     147 O           17.6690    29.6720     7.1160 O             1 RES     
     148 Si          20.2150     6.4960     4.7090 Si            1 RES     
     149 Si          26.0590    40.8180     5.8490 Si            1 RES     
     150 O           28.9650    38.7850    10.2090 O             1 RES     
     151 O           40.1500    16.6990     2.3940 O             1 RES     
     152 Si          49.4280     0.5340     8.6050 Si            1 RES     
     153 OS          30.9120     5.7890    15.4930 OS            1 RES     
     154 O            4.7720    21.7590     6.4550 O             1 RES     
     155 O           24.2530    33.2980     7.8670 O             1 RES     
     156 O           26.5570    43.0640    13.5040 O             1 RES     
     157 Si          10.7020    30.7490     6.1000 Si            1 RES     
     158 O           42.6700     5.6730     5.2900 O             1 RES     
     159 Si          14.2700    49.9640    11.6860 Si            1 RES     
     160 O            6.6100    21.1300    10.0300 O             1 RES     
     161 O           49.4510    11.8250    10.8060 O             1 RES     
     162 O           41.1260    13.8420     9.8870 O             1 RES     
     163 O           36.5990    20.8150    13.3960 O             1 RES     
     164 OS           5.7020     7.1450    15.7140 OS            1 RES     
     165 O           45.6810    15.0260     7.0230 O             1 RES     
     166 O           46.7460    26.3010     8.8480 O             1 RES     
     167 O           27.8520    30.1570     5.1630 O             1 RES     
     168 O           14.0080    16.7380     5.3380 O             1 RES     
     169 O           27.0560    41.8310     1.9940 O             1 RES     
     170 Si          13.3490    24.6240     3.2190 Si            1 RES     
     171 O           25.9020    34.8710     4.4290 O             1 RES     
     172 O           20.1230     4.8830     4.5910 O             1 RES     
     173 O           34.1470    15.1210    11.3000 O             1 RES     
     174 Si           1.3730    22.1510     2.9220 Si            1 RES     
     175 O           21.3860     9.3540    14.2790 O             1 RES     
     176 O           49.7900    25.9860     3.1710 O             1 RES     
     177 O           32.2150    27.3290     8.7490 O             1 RES     
     178 O           42.4190    13.5680     5.7240 O             1 RES     
     179 O           37.2140     5.2770     9.2580 O             1 RES     
     180 O           40.9980    23.4960     1.5910 O             1 RES     
     181 O            0.6460    27.9250    13.3760 O             1 RES     
     182 Si           0.8110    19.1590     9.6580 Si            1 RES     
     183 O           30.5330    18.1760     4.0030 O             1 RES     
     184 O           41.9850    33.4010     8.8860 O             1 RES     
     185 O            6.9590    38.8170    12.1150 O             1 RES     
     186 O           23.5630    28.8290     6.0310 O             1 RES     
     187 Si          36.8960     6.1620    10.4730 Si            1 RES     
     188 O           30.9060    42.8970    12.8760 O             1 RES     
     189 Si          36.6590    19.1670    13.0730 Si            1 RES     
     190 O           22.3450    33.7720    10.4280 O             1 RES     
     191 Si          38.7720    49.4470     3.8340 Si            1 RES     
     192 Si          20.6320    28.6790    11.6590 Si            1 RES     
     193 O           29.1060     9.9070     8.0490 O             1 RES     
     194 O            4.3300    16.1090     6.8260 O             1 RES     
     195 Si          46.1970     8.4660     8.6420 Si            1 RES     
     196 O           31.4770    20.9200    10.3250 O             1 RES     
     197 O           23.6740    13.7090     7.1970 O             1 RES     
     198 O           25.7850    16.0530    11.2930 O             1 RES     
     199 Si          25.0720     2.0650    11.2810 Si            1 RES     
     200 O            6.5130    12.3630    10.0980 O             1 RES     
     201 O            9.7480    22.3050    14.0480 O             1 RES     
     202 O           31.2430    26.1310     6.4910 O             1 RES     
     203 O           29.5560    43.4330     4.9100 O             1 RES     
     204 O            5.5290    29.6980     4.5780 O             1 RES     
     205 O           41.2690     0.2290    13.6010 O             1 RES     
     206 Si          12.1290    29.9390     9.9840 Si            1 RES     
     207 OS          37.6540    22.6800    14.4990 OS            1 RES     
     208 OS          19.3970     5.5340    14.5810 OS            1 RES     
     209 Si          42.9810    42.5610    10.5600 Si            1 RES     
     210 O            0.0220    14.5270     4.1100 O             1 RES     
     211 O           27.5270     6.1070     3.8020 O             1 RES     
     212 O           12.7250     3.7090    12.4850 O             1 RES     
     213 Si           9.4180     2.8310    10.8570 Si            1 RES     
     214 O           31.6600    36.1520    10.5500 O             1 RES     
     215 Si          18.5290    31.0570     7.4200 Si            1 RES     
     216 O           22.9530    45.1110    10.9490 O             1 RES     
     217 O           47.5310    28.1790     7.5710 O             1 RES     
     218 Si          32.4110    11.4260    14.4260 Si            1 RES     
     219 O           22.0970     2.9560     3.5790 O             1 RES     
     220 O           23.9750    47.1680     6.4300 O             1 RES     
     221 Si          35.6350     7.7970     5.0950 Si            1 RES     
     222 OS          28.6390    36.2550    14.3820 OS            1 RES     
     223 Si          15.2560    25.1420    10.4270 Si            1 RES     
     224 O           18.6580    35.0890    10.6360 O             1 RES     
     225 O           20.2660    37.5690    13.8000 O             1 RES     
     226 O           29.7200    18.0810    12.3670 O             1 RES     
     227 O           26.0000    19.8770     4.2940 O             1 RES     
     228 O           41.0400     2.2550     8.1180 O             1 RES     
     229 Si          26.5050     9.2230     5.5330 Si            1 RES     
     230 O           36.9120    40.4130    10.7990 O             1 RES     
     231 O           20.7340    15.2520     4.9050 O             1 RES     
     232 O           19.4960    18.3400    10.8120 O             1 RES     
     233 O           22.9330     2.9620     7.0930 O             1 RES     
     234 O           46.3160    48.9330    13.3120 O             1 RES     
     235 O           25.5590    23.5770     6.4960 O             1 RES     
     236 O           34.9440    48.6380    11.0810 O             1 RES     
     237 Si          25.5740    19.7440    11.9030 Si            1 RES     
     238 O           48.8640    43.1430    13.3700 O             1 RES     
     239 Si          39.8650    13.0490    13.4740 Si            1 RES     
     240 O            0.6750    30.5180    10.5840 O             1 RES     
     241 OS          19.3050    40.6320    15.2050 OS            1 RES     
     242 Si          19.9420     6.1710     7.7720 Si            1 RES     
     243 Si          23.1990    12.0790     3.8050 Si            1 RES     
     244 O           30.8380     5.4450     5.9680 O             1 RES     
     245 O           45.9100     7.5290     7.3860 O             1 RES     
     246 Si           3.6840    12.8230    12.3480 Si            1 RES     
     247 O           18.8100    44.6700    12.2700 O             1 RES     
     248 Si          38.0060    11.3040     9.0220 Si            1 RES     
     249 O           20.9740    36.1480     4.3800 O             1 RES     
     250 Si          21.0440     5.2630    14.6930 Si            1 RES     
     251 O           33.5230    45.4890     2.9160 O             1 RES     
     252 O           28.3750     6.0870    14.6900 O             1 RES     
     253 O           23.1790    31.3580     2.5010 O             1 RES     
     254 Si           9.2410    45.5480     3.3790 Si            1 RES     
     255 Si          34.3650     5.5360    12.3320 Si            1 RES     
     256 Si          39.6160    25.8090     3.1450 Si            1 RES     
     257 O           28.8550    16.9830     8.2740 O             1 RES     
     258 Si          10.8730    25.4460     9.4090 Si            1 RES     
     259 O            2.9380    27.3670    13.5110 O             1 RES     
     260 O           33.3940    45.2420    13.7960 O             1 RES     
     261 Si          45.8650    31.8970     2.7980 Si            1 RES     
     262 O           43.3990     5.4610    10.9030 O             1 RES     
     263 Si          48.1860     9.2440    12.9390 Si            1 RES     
     264 O           45.3100    32.5620     6.9560 O             1 RES     
     265 O           21.8170    45.9040     5.1190 O             1 RES     
     266 O           42.0710    47.7170     9.4400 O             1 RES     
     267 Si          35.4420    32.0520     7.3890 Si            1 RES     
     268 O           45.1310    14.1860     9.3770 O             1 RES     
     269 O           13.7230     1.3210    12.2550 O             1 RES     
     270 O           28.4180    12.2310     8.3410 O             1 RES     
     271 O           48.1150     3.6560     3.2300 O             1 RES     
     272 O           24.3630    21.2010     2.9820 O             1 RES     
     273 Si           0.4750    39.2730     4.6870 Si            1 RES     
     274 Si          49.8290    17.2240    12.6160 Si            1 RES     
     275 O           11.8830    42.9360     5.5030 O             1 RES     
     276 O           48.1000    18.5900     5.2710 O             1 RES     
     277 OS          36.9350    13.5800    15.2140 OS            1 RES     
     278 Si          13.5760    45.1310     8.3190 Si            1 RES     
     279 O            7.9420    29.6150     8.5510 O             1 RES     
     280 O           19.4490    16.2870     9.2650 O             1 RES     
     281 Si          21.5420    36.5720    14.1650 Si            1 RES     
     282 O           20.8560    44.1370    13.7370 O             1 RES     
     283 O           21.8720    33.0660     6.7000 O             1 RES     
     284 Si          28.1680    32.5160     7.8900 Si            1 RES     
     285 O            9.3260    14.7530     6.8240 O             1 RES     
     286 Si          33.4080    23.7200     8.8770 Si            1 RES     
     287 O           22.0920    20.6210     7.5910 O             1 RES     
     288 O            3.4620     6.4040    10.5250 O             1 RES     
     289 Si          37.3120    24.5400    11.4470 Si            1 RES     
     290 O           26.2140    25.8960    11.8030 O             1 RES     
     291 Si          39.0690    17.2800     3.3630 Si            1 RES     
     292 O           38.6180    34.2620     4.5350 O             1 RES     
     293 Si          37.6040    34.2130     3.3530 Si            1 RES     
     294 O           17.1970    29.7180    13.4790 O             1 RES     
     295 O            0.7970    42.5890     7.7990 O             1 RES     
     296 O           22.2110    13.2820     3.8790 O             1 RES     
     297 OS          40.1380    25.9320    14.3240 OS            1 RES     
     298 O            3.3010    42.0190     7.2270 O             1 RES     
     299 O           42.6960    40.5310     3.8590 O             1 RES     
     300 Si          17.0000     5.1450     8.0970 Si            1 RES     
     301 O           47.1890    25.8760     6.4000 O             1 RES     
     302 O           42.6210    18.3830    10.7470 O             1 RES     
     303 O            8.0760    15.1190     4.6190 O             1 RES     
     304 Si          45.0950    38.4250    10.3500 Si            1 RES     
     305 O           45.8150     0.0320     1.4580 O             1 RES     
     306 Si          12.9980    31.8610     7.7030 Si            1 RES     
     307 O           18.4430    18.7220     8.4660 O             1 RES     
     308 O           24.4370    16.7460     6.5860 O             1 RES     
     309 OS          49.4460    48.7190    14.6740 OS            1 RES     
     310 Si          14.9540    12.9100     6.0530 Si            1 RES     
     311 O           14.9650    18.7910     9.9840 O             1 RES     
     312 O           37.9870    44.9430    12.3720 O             1 RES     
     313 Si          20.9490    47.8360    14.6340 Si            1 RES     
     314 Si          24.7280    26.1950    11.4530 Si            1 RES     
     315 O           47.3630    32.9210     8.3330 O             1 RES     
     316 O           43.0670     2.0600    14.2180 O             1 RES     
     317 O           32.0960    16.7640    11.4900 O             1 RES     
     318 O           34.8860    47.1780    12.9650 O             1 RES     
     319 O           12.7500    15.3170     3.5650 O             1 RES     
     320 O           35.1600    41.7720     5.1760 O             1 RES     
     321 O           46.3020    43.3040     9.1230 O             1 RES     
     322 O           21.4630    14.5980     8.6160 O             1 RES     
     323 O           38.8250    47.9060     3.5560 O             1 RES     
     324 OS          31.5970    22.2610    15.3020 OS            1 RES     
     325 O           33.4650     1.9990     3.7860 O             1 RES     
     326 O           27.3030    14.6550     8.4230 O             1 RES     
     327 Si          47.7840    30.4230    13.0160 Si            1 RES     
     328 Si          28.0700    37.3300    13.3640 Si            1 RES     
     329 O           24.3010    27.5890    11.8080 O             1 RES     
     330 O           29.2100    28.5980    14.2210 O             1 RES     
     331 O           18.4060    47.3430    11.6440 O             1 RES     
     332 O            6.4100    19.6400     5.3440 O             1 RES     
     333 O           19.7470    28.5850    12.9640 O             1 RES     
     334 O            9.7490    47.1610    13.2240 O             1 RES     
     335 Si          48.5780    19.7920     6.0330 Si            1 RES     
     336 Si          13.2120     6.2720     4.4060 Si            1 RES     
     337 Si          38.8670    43.7710     3.9090 Si            1 RES     
     338 O           16.1730    35.9180     6.1790 O             1 RES     
     339 Si          46.9800     2.9410     3.9820 Si            1 RES     
     340 O           16.4210    48.9450     5.2640 O             1 RES     
     341 OS          26.6940    44.9590    15.1340 OS            1 RES     
     342 O           49.7980    38.4060    12.4830 O             1 RES     
     343 Si          45.7850    33.9520    13.4140 Si            1 RES     
     344 Si          28.4320     0.9860     9.0180 Si            1 RES     
     345 OS          13.7120    44.0760    14.1260 OS            1 RES     
     346 OS          18.4220    28.3930    15.1580 OS            1 RES     
     347 O            3.7910    19.2340    12.2220 O             1 RES     
     348 Si          37.3810    14.3720     9.2660 Si            1 RES     
     349 O           39.6090    17.1140     4.7570 O             1 RES     
     350 O           18.9850    23.2030     4.9360 O             1 RES     
     351 O           33.3830    29.5890     8.6530 O             1 RES     
     352 Si           6.5040    34.3540     3.6440 Si            1 RES     
     353 OS          27.0950    38.4120    14.2150 OS            1 RES     
     354 O           10.6390    41.7210    12.3230 O             1 RES     
     355 Si          21.8010    23.4750    10.1490 Si            1 RES     
     356 O           32.1880     2.9370    11.0530 O             1 RES     
     357 O           48.2850    37.1040     8.2830 O             1 RES     
     358 O           41.0400     2.3510    12.7430 O             1 RES     
     359 Si          23.6110    42.4730     6.8000 Si            1 RES     
     360 Si          39.1900    24.7630     8.9630 Si            1 RES     
     361 O           23.5860    47.4960    12.0860 O             1 RES     
     362 O           35.6550    44.6830    12.9390 O             1 RES     
     363 O           38.8090    10.5150     5.0240 O             1 RES     
     364 Si          24.0620    35.1490    14.2360 Si            1 RES     
     365 Si           7.5450    17.4300    12.2700 Si            1 RES     
     366 O           11.9280    10.0130     4.3980 O             1 RES     
     367 OS          29.4870    24.8820    15.0800 OS            1 RES     
     368 O           47.4460    12.9720    12.0550 O             1 RES     
     369 O           16.4350     1.3450     6.4240 O             1 RES     
     370 OS          15.1070    41.8100    14.3490 OS            1 RES     
     371 Si          10.3130    11.8920    10.4020 Si            1 RES     
     372 O           11.2070    32.3640    13.4470 O             1 RES     
     373 O           23.7810    46.8420     3.9060 O             1 RES     
     374 O           32.3080    40.5490    13.5250 O             1 RES     
     375 Si          14.6130    39.8490    10.8620 Si            1 RES     
     376 O           23.8970    25.3580    12.4800 O             1 RES     
     377 Si           9.0190     4.2510     4.0900 Si            1 RES     
     378 O           25.1120    14.6520     5.4390 O             1 RES     
     379 Si          44.0140    36.7140     7.7550 Si            1 RES     
     380 O           48.1550    10.7840    12.7930 O             1 RES     
     381 O           14.5800    10.1050    13.9600 O             1 RES     
     382 O           30.2540    15.4520    12.2440 O             1 RES     
     383 O           15.1430    39.4530     9.4470 O             1 RES     
     384 Si          26.1430     3.1790     5.5820 Si            1 RES     
     385 O            0.4530     3.1480     6.2690 O             1 RES     
     386 O           46.8350    49.3910    10.9860 O             1 RES     
     387 O            4.0590    36.5990     8.4880 O             1 RES     
     388 Si          21.9700    14.8470     4.0010 Si            1 RES     
     389 Si           5.4830    21.8870    10.9520 Si            1 RES     
     390 O           12.9610    16.0130    12.0790 O             1 RES     
     391 Si          18.5110    45.7810    11.1700 Si            1 RES     
     392 O           26.1120     6.5300    13.1560 O             1 RES     
     393 O           28.9550    11.6580     3.8450 O             1 RES     
     394 O           16.8570     4.4800     9.5660 O             1 RES     
     395 O           12.2070    31.3180     6.4880 O             1 RES     
     396 Si           3.6610    47.9890     3.2660 Si            1 RES     
     397 O            2.3810    38.3960     9.2630 O             1 RES     
     398 OS           2.3710    15.6750    15.1730 OS            1 RES     
     399 O           16.4770    43.0330     5.4360 O             1 RES     
     400 OS          18.8940    14.6420    14.0900 OS            1 RES     
     401 O            8.4010    37.8400     9.9930 O             1 RES     
     402 Si          35.2360    26.0960     9.8200 Si            1 RES     
     403 O           41.6370    48.2940    12.0470 O             1 RES     
     404 O           28.3920    45.5220     9.3080 O             1 RES     
     405 Si           8.7650     9.9060     8.6400 Si            1 RES     
     406 Si          31.1860    40.2060     4.6190 Si            1 RES     
     407 O           33.9620     9.7730    11.3540 O             1 RES     
     408 Si          29.9290    38.9810    11.4220 Si            1 RES     
     409 O           31.0820    45.2290    13.9070 O             1 RES     
     410 O           12.6410    40.5630    10.4970 O             1 RES     
     411 O           46.4470    45.4640     8.5700 O             1 RES     
     412 O            3.8460    49.6770    12.4230 O             1 RES     
     413 O           11.9350    26.3070    10.1220 O             1 RES     
     414 OS           1.5340    34.4590    14.7830 OS            1 RES     
     415 O           34.7310    37.0780     7.2970 O             1 RES     
     416 O            9.9940    32.7270     3.7510 O             1 RES     
     417 O           45.7050    12.9940    13.9360 O             1 RES     
     418 Si          18.4620    19.7870     7.3990 Si            1 RES     
     419 O           11.2240    35.5340     6.4810 O             1 RES     
     420 O           43.9110    10.6470     6.2750 O             1 RES     
     421 O           45.5200    36.9650     7.4450 O             1 RES     
     422 O           42.3600    47.1630     6.9220 O             1 RES     
     423 O           21.7830    13.9840    12.3470 O             1 RES     
     424 Si           4.6720    42.4670    14.7490 Si            1 RES     
     425 O           44.6130    34.5780    14.3020 O             1 RES     
     426 Si          14.1290    22.9800    14.7380 Si            1 RES     
     427 Si          38.2540    43.6100     8.9210 Si            1 RES     
     428 O           17.5590    27.3140    12.9220 O             1 RES     
     429 O            3.3950    11.3600    11.7150 O             1 RES     
     430 Si           6.1610     4.5190     2.9570 Si            1 RES     
     431 Si          35.9990     4.7990     5.4630 Si            1 RES     
     432 OS          31.9370    24.6540    15.5530 OS            1 RES     
     433 O           40.4460     8.8940    11.2490 O             1 RES     
     434 Si          36.3780     8.7640     9.1110 Si            1 RES     
     435 Si           1.8180    27.6390    12.3530 Si            1 RES     
     436 O           47.8010    37.1470    12.8070 O             1 RES     
     437 OS           6.0320    28.5880    14.6560 OS            1 RES     
     438 O           11.1920    45.1340    13.1630 O             1 RES     
     439 O           48.1120    47.4380    10.4120 O             1 RES     
     440 O           39.5130    20.8610     8.2070 O             1 RES     
     441 O            7.0610     3.7190    13.2660 O             1 RES     
     442 O           26.4280    34.1630    11.4740 O             1 RES     
     443 Si          33.3770     3.5300     3.4640 Si            1 RES     
     444 O           16.2090    28.5900     2.5190 O             1 RES     
     445 Si          47.5000    16.6790    14.5240 Si            1 RES     
     446 O           36.1180    48.2970     8.6890 O             1 RES     
     447 O           46.7490    17.9500     3.0500 O             1 RES     
     448 O           41.6860    42.9810     6.6740 O             1 RES     
     449 O           37.4760    12.5040     5.3120 O             1 RES     
     450 Si          24.7900    13.2300     6.2040 Si            1 RES     
     451 O           38.1530     4.6200    13.3710 O             1 RES     
     452 O            9.6770    32.6350    11.3050 O             1 RES     
     453 Si          33.9690    22.8690     3.4780 Si            1 RES     
     454 O           43.9820    37.9620     9.3120 O             1 RES     
     455 Si          39.8800    10.0190    14.4640 Si            1 RES     
     456 Si          12.2740    34.9140     7.4100 Si            1 RES     
     457 OS          48.1120    31.3340    14.2630 OS            1 RES     
     458 O           25.0010    18.4920    11.1670 O             1 RES     
     459 O            2.7600    24.2130    10.4020 O             1 RES     
     460 O           42.9580    26.1660    11.8200 O             1 RES     
     461 O           45.1440    14.4450    11.7480 O             1 RES     
     462 Si          40.0110    39.8830     8.6920 Si            1 RES     
     463 O           30.9400    26.7240    14.3070 O             1 RES     
     464 O            4.8870    30.6080    12.7110 O             1 RES     
     465 Si          29.8400     5.9120    14.2460 Si            1 RES     
     466 O           36.7400    29.8300     5.2550 O             1 RES     
     467 Si          29.9620     2.8120    14.3510 Si            1 RES     
     468 Si          16.6150    44.7830     8.8650 Si            1 RES     
     469 O           14.1100    11.8590     9.6930 O             1 RES     
     470 O            2.0850    44.1560     6.4310 O             1 RES     
     471 O           39.2760    49.2800    12.1610 O             1 RES     
     472 Si          39.0470    45.4520    11.2560 Si            1 RES     
     473 Si          46.1120    42.6170    10.5030 Si            1 RES     
     474 Si          15.9470     2.3680     7.5480 Si            1 RES     
     475 Si          12.7670    44.5550    12.9780 Si            1 RES     
     476 O            9.2800    23.5000     7.5290 O             1 RES     
     477 O           40.7000    34.4120    12.2590 O             1 RES     
     478 O           37.3970    49.2820    10.3440 O             1 RES     
     479 O           27.2990     9.9210     4.3170 O             1 RES     
     480 OS          38.9710    38.8380    14.4190 OS            1 RES     
     481 O           47.5000    17.2100     9.6140 O             1 RES     
     482 O           10.7770    40.0520     8.7900 O             1 RES     
     483 O           21.3040     5.7590    16.2490 O             1 RES     
     484 O           17.1220    19.9280    13.5530 O             1 RES     
     485 Si          24.9320    24.8970     5.9010 Si            1 RES     
     486 Si          46.2280    36.8130    12.7060 Si            1 RES     
     487 O           17.5710     7.1020    13.6460 O             1 RES     
     488 OS           4.0240    35.2560    14.7380 OS            1 RES     
     489 O            3.9580    31.7320     3.9260 O             1 RES     
     490 O           30.0340    48.1820     5.4990 O             1 RES     
     491 Si          13.4320    27.8980    13.9180 Si            1 RES     
     492 Si           2.3960     0.3410    12.1610 Si            1 RES     
     493 Si           1.3740    24.8670    10.7920 Si            1 RES     
     494 O           32.8560    14.0160     5.4360 O             1 RES     
     495 Si          10.6450    14.5730    14.5960 Si            1 RES     
     496 O            5.0360    32.8140    11.2680 O             1 RES     
     497 O            4.3950     1.0660     5.6080 O             1 RES     
     498 Si          11.4700    14.6680     9.6650 Si            1 RES     
     499 O           45.4260    12.4360     7.7160 O             1 RES     
     500 Si          39.5160    33.9090    11.3150 Si            1 RES     
     501 O           42.7260    45.9040    11.9400 O             1 RES     
     502 O           21.7830     5.7500    13.3060 O             1 RES     
     503 O            3.4140    40.7410     9.3500 O             1 RES     
     504 O           34.3490    32.3610     3.7950 O             1 RES     
     505 O            4.0670    45.7170    13.0380 O             1 RES     
     506 O           16.5320    25.6030    11.2150 O             1 RES     
     507 O            8.3430    40.2150     9.8420 O             1 RES     
     508 O            4.0360    25.3720     8.7120 O             1 RES     
     509 O           30.6800    45.8030     9.3590 O             1 RES     
     510 O           10.0900    10.7120     6.1550 O             1 RES     
     511 O           19.1940    17.1920     5.2050 O             1 RES     
     512 O           37.1160    48.2080    12.3700 O             1 RES     
     513 OS          21.3010    24.0450    16.2710 OS            1 RES     
     514 Si          11.3670    16.3290    12.1810 Si            1 RES     
     515 O           21.0180    22.6280    14.1260 O             1 RES     
     516 O           35.5170    49.9290     1.5800 O             1 RES     
     517 O            3.1960    13.4610     3.7560 O             1 RES     
     518 O            4.0060    30.3250     6.5690 O             1 RES     
     519 Si          39.5480    34.3190     5.9030 Si            1 RES     
     520 Si          19.5940    18.6870     4.7920 Si            1 RES     
     521 O           15.5400    11.8900    12.5810 O             1 RES     
     522 OS          37.5660    43.9420    14.5470 OS            1 RES     
     523 Si           3.2760    22.0430     6.8940 Si            1 RES     
     524 O            4.7160    44.8320     2.2930 O             1 RES     
     525 Si          16.4430     3.1290    10.4140 Si            1 RES     
     526 O           34.7450    20.4650     6.8190 O             1 RES     
     527 O           42.7410    49.4860     7.9210 O             1 RES     
     528 O            9.6600    25.8890     8.2980 O             1 RES     
     529 Si          14.1900    40.4600     5.9330 Si            1 RES     
     530 O            2.1890     7.9920     5.7940 O             1 RES     
     531 O           16.4940    21.9160    12.0070 O             1 RES     
     532 O            8.7360    23.7110    12.1360 O             1 RES     
     533 OS          13.5230    21.9240    15.8210 OS            1 RES     
     534 O            9.6740     3.0890     7.3500 O             1 RES     
     535 Si          45.4850     2.3080     9.1260 Si            1 RES     
     536 O           34.5530     1.7420     7.1130 O             1 RES     
     537 Si          47.6950    46.8240     4.1620 Si            1 RES     
     538 O           42.5580    35.6650    13.9000 O             1 RES     
     539 O            9.0940    31.8780     9.0570 O             1 RES     
     540 O           32.8540    11.6640    10.2560 O             1 RES     
     541 O           39.9370    12.6720     5.1830 O             1 RES     
     542 O           42.7870     7.5880     3.9020 O             1 RES     
     543 O           41.5110    44.6970    13.8950 O             1 RES     
     544 O           27.3630    49.9370    13.8480 O             1 RES     
     545 Si           3.5110    26.4870     7.6910 Si            1 RES     
     546 O           24.8100    40.6180     2.1530 O             1 RES     
     547 Si          33.1190    31.9260    14.0560 Si            1 RES     
     548 OS          28.0830    19.4000    14.1250 OS            1 RES     
     549 Si          45.3360    48.4560     5.2530 Si            1 RES     
     550 O           15.0890    16.2570    10.7830 O             1 RES     
     551 O            1.7470    25.2300     4.6450 O             1 RES     
     552 O           20.2430    49.6870    11.9420 O             1 RES     
     553 Si           1.9550    42.6290     6.7790 Si            1 RES     
     554 Si          21.5380     3.5220     7.4470 Si            1 RES     
     555 O           17.2980    45.0130    10.2930 O             1 RES     
     556 O           14.1450    39.2150     6.8920 O             1 RES     
     557 O           10.4990    19.3050     7.6740 O             1 RES     
     558 Si          14.9070     7.2060     6.9330 Si            1 RES     
     559 OS          35.9940    28.8700    14.4490 OS            1 RES     
     560 Si          28.6810    25.7310     9.3460 Si            1 RES     
     561 O           35.3300    30.3750     2.9760 O             1 RES     
     562 Si           8.6830    43.2050     7.6990 Si            1 RES     
     563 O           14.0870    29.7210     3.3030 O             1 RES     
     564 O           19.1870    21.2940    12.9720 O             1 RES     
     565 O           33.0820    22.8120    10.2330 O             1 RES     
     566 Si           9.8810    40.5260    12.9850 Si            1 RES     
     567 O           47.5190    36.2220     3.8790 O             1 RES     
     568 Si          28.5250     6.5820    10.1990 Si            1 RES     
     569 O           10.7470    36.0950    11.4710 O             1 RES     
     570 Si          47.4500    17.4220     4.3660 Si            1 RES     
     571 O           28.1610    15.8470     6.3670 O             1 RES     
     572 OS           1.1650    22.8170    14.2730 OS            1 RES     
     573 O           20.9420    35.2100    13.7210 O             1 RES     
     574 O           44.8110     0.9100     8.5730 O             1 RES     
     575 Si          44.9640     1.5540    14.1870 Si            1 RES     
     576 O           18.5750    27.3960     6.6910 O             1 RES     
     577 O           26.1090     3.3020     3.9990 O             1 RES     
     578 Si          42.6060    34.7230     9.4340 Si            1 RES     
     579 Si          45.3720    10.9610     7.0310 Si            1 RES     
     580 O           22.5860    29.5690     3.9380 O             1 RES     
     581 Si          22.7510    32.3970    13.7560 Si            1 RES     
     582 O           46.9910     8.4630    12.3190 O             1 RES     
     583 Si          40.2970    31.3540     6.4800 Si            1 RES     
     584 Si           6.0960    33.9830    10.8440 Si            1 RES     
     585 O           12.7440    30.9830     8.8940 O             1 RES     
     586 O           46.1210     1.2430    12.8700 O             1 RES     
     587 O           26.2930    30.5420     3.2220 O             1 RES     
     588 OS          24.6990    25.6840    14.8190 OS            1 RES     
     589 O            7.8820    24.5560     9.3200 O             1 RES     
     590 O           27.0360    22.2950     8.3600 O             1 RES     
     591 O           25.2950     0.7040    10.3780 O             1 RES     
     592 Si          24.9280    17.5040     7.8380 Si            1 RES     
     593 O           48.6180     4.1440    10.7340 O             1 RES     
     594 O           25.6520    28.5460     7.8160 O             1 RES     
     595 O           19.8470    24.9840     6.4890 O             1 RES     
     596 Si          41.6370    12.8030    10.9200 Si            1 RES     
     597 Si          35.3520     1.3890    12.1150 Si            1 RES     
     598 Si          46.8970    37.7350     7.7620 Si            1 RES     
     599 O            5.3780    35.8640     6.8210 O             1 RES     
     600 Si          29.6910    10.9870    13.0470 Si            1 RES     
     601 O           45.1740    27.8150     2.8680 O             1 RES     
     602 Si          43.8770    27.3760    11.5510 Si            1 RES     
     603 Si          11.7030    38.3260    14.0660 Si            1 RES     
     604 Si          12.5270     8.5340     8.2720 Si            1 RES     
     605 O            3.5620    28.0480     7.7900 O             1 RES     
     606 O           46.5290    22.0670     9.2400 O             1 RES     
     607 Si          13.1480    15.3560     5.0550 Si            1 RES     
     608 O           24.9450    29.7810    11.9010 O             1 RES     
     609 O            0.0590    17.7840     9.3110 O             1 RES     
     610 O           19.1170    13.8090     9.2550 O             1 RES     
     611 O            4.0670    37.3420     4.9070 O             1 RES     
     612 O           36.9140    10.2500     9.4460 O             1 RES     
     613 O           35.5640     6.3480     5.5660 O             1 RES     
     614 O           29.1860    38.1350    12.6570 O             1 RES     
     615 Si          31.8730    37.3300     3.6020 Si            1 RES     
     616 O           42.7740     3.8650     8.6890 O             1 RES     
     617 O           49.9610    33.5230     2.2830 O             1 RES     
     618 O           36.2550    26.7060     8.7730 O             1 RES     
     619 Si          14.0130    15.1700    11.1740 Si            1 RES     
     620 O            3.7870    16.7630    12.8830 O             1 RES     
     621 OS          25.4310    34.6270    14.8470 OS            1 RES     
     622 Si          48.5450     5.0490    12.0960 Si            1 RES     
     623 Si          22.1770    15.5760    12.9460 Si            1 RES     
     624 Si          49.6620    41.8330    13.8930 Si            1 RES     
     625 Si          30.7570    28.2600    14.2650 Si            1 RES     
     626 O           40.6880    22.2130     4.0540 O             1 RES     
     627 OS          23.5790    35.9590    15.4950 OS            1 RES     
     628 O           14.5790    32.1970     7.4600 O             1 RES     
     629 O           40.8770    38.5600     8.8240 O             1 RES     
     630 Si          30.0510    19.2360     5.0320 Si            1 RES     
     631 O           32.2550     8.4950     2.8570 O             1 RES     
     632 Si          10.2670    20.7780    14.2660 Si            1 RES     
     633 O           34.4760    30.9950    14.3700 O             1 RES     
     634 O           23.0200    32.1490    12.2200 O             1 RES     
     635 Si           6.2410    43.4290     9.5200 Si            1 RES     
     636 Si          26.1320    27.2990     4.2450 Si            1 RES     
     637 O           39.7030    43.2250     8.3650 O             1 RES     
     638 Si          34.6490     3.1510     7.7220 Si            1 RES     
     639 O           15.1550    11.3100     5.9300 O             1 RES     
     640 OS          49.2980    28.8440    15.4250 OS            1 RES     
     641 Si           5.3720    10.0700     4.4590 Si            1 RES     
     642 Si          11.8040    33.5990    14.2240 Si            1 RES     
     643 O           42.3490     7.4910    12.1660 O             1 RES     
     644 O           15.4210    40.4660    12.0290 O             1 RES     
     645 O            5.0060     4.4480     4.0530 O             1 RES     
     646 O           19.4280    45.2850     5.8050 O             1 RES     
     647 O           44.4440    46.5930    10.0370 O             1 RES     
     648 O           49.3310    32.3570     9.5320 O             1 RES     
     649 O           30.1120    26.0840     8.9200 O             1 RES     
     650 O           10.4160     1.0990     2.8170 O             1 RES     
     651 O            5.6430    34.8800     9.6260 O             1 RES     
     652 O           10.6130    29.6900     9.5080 O             1 RES     
     653 O           38.9430    30.5190     6.3560 O             1 RES     
     654 O           10.5100     8.1880     5.4640 O             1 RES     
     655 O           18.0080    49.7870    12.4920 O             1 RES     
     656 O           29.9750    18.5390     6.4630 O             1 RES     
     657 Si          43.5010     6.3350    12.2980 Si            1 RES     
     658 O           31.0460    33.8030     5.5130 O             1 RES     
     659 O            8.9270    11.8520    11.1040 O             1 RES     
     660 O           22.6540     0.6510     6.3860 O             1 RES     
     661 O           45.1230    32.2190     9.7350 O             1 RES     
     662 O           15.4250     8.6330     6.4840 O             1 RES     
     663 O           24.3040    33.2740     3.2250 O             1 RES     
     664 O           49.8890    13.0660     8.7600 O             1 RES     
     665 Si           8.1590    11.0630     5.8820 Si            1 RES     
     666 Si           9.7230     6.6800    12.0750 Si            1 RES     
     667 O            3.9800    43.3720    13.5930 O             1 RES     
     668 Si          11.2500     4.1060    12.8800 Si            1 RES     
     669 Si          28.4790     8.4120     7.7260 Si            1 RES     
     670 Si           0.5120     7.5370    12.0020 Si            1 RES     
     671 O            9.6710     5.6550     4.5980 O             1 RES     
     672 O           13.4000    24.3310    15.2050 O             1 RES     
     673 OS          11.0690    12.9990    14.4340 OS            1 RES     
     674 O           47.4550    13.8010     8.3070 O             1 RES     
     675 O           18.8750    25.6890    11.5620 O             1 RES     
     676 Si           9.6420    29.2860     3.6580 Si            1 RES     
     677 O            6.7420    27.7270     7.4510 O             1 RES     
     678 O           29.2080     1.5190    13.8370 O             1 RES     
     679 Si           7.3690    11.2960    10.8940 Si            1 RES     
     680 OS          31.9450    38.3100    15.3200 OS            1 RES     
     681 Si          30.6730    32.5360     9.5370 Si            1 RES     
     682 O           12.3410    33.3180     7.6750 O             1 RES     
     683 Si           5.5320    36.0130     8.4250 Si            1 RES     
     684 Si          23.0290    43.0570    11.1760 Si            1 RES     
     685 Si          40.9590     8.1710     7.5530 Si            1 RES     
     686 O           19.6480    48.2890    13.7740 O             1 RES     
     687 O           34.4150    22.6970     5.0520 O             1 RES     
     688 O           21.5930     3.0260     9.0560 O             1 RES     
     689 Si          35.2580    14.0110    11.5060 Si            1 RES     
     690 O           15.8700    32.0780     9.6110 O             1 RES     
     691 O           27.1660    18.1990     2.9840 O             1 RES     
     692 O            2.9420    29.6550     4.5650 O             1 RES     
     693 Si          25.2930    10.2740    13.0130 Si            1 RES     
     694 Si          41.6730    43.7280     5.2710 Si            1 RES     
     695 O           39.1920     0.5770     7.9150 O             1 RES     
     696 O           12.7510    19.8360     9.1320 O             1 RES     
     697 O           21.9460    42.2760    10.3200 O             1 RES     
     698 Si          27.4560    43.7230    14.4830 Si            1 RES     
     699 O           14.1980    38.2730     2.9000 O             1 RES     
     700 O           22.6260    36.9100    13.1670 O             1 RES     
     701 OS          14.4700    12.5290    14.5470 OS            1 RES     
     702 Si          32.7010    39.1420    14.1330 Si            1 RES     
     703 O           46.6200    17.8880    14.0150 O             1 RES     
     704 Si          15.9120    40.6950    13.5120 Si            1 RES     
     705 O           29.3360    32.1020     8.8840 O             1 RES     
     706 O           49.7930    10.4860     8.6050 O             1 RES     
     707 Si           6.7470    10.0170    13.5860 Si            1 RES     
     708 O           26.2920    12.6820     9.6340 O             1 RES     
     709 O            9.8200    25.0990    10.5220 O             1 RES     
     710 Si          27.4390    19.6000     3.5680 Si            1 RES     
     711 O            6.6230    14.8530     6.6910 O             1 RES     
     712 O            8.6230    49.0540    10.4420 O             1 RES     
     713 O           44.8180    26.8060    10.4470 O             1 RES     
     714 Si           3.0300    44.5360    13.2270 Si            1 RES     
     715 O           34.5170    24.8560     9.2050 O             1 RES     
     716 O           20.2360     9.1000    10.6340 O             1 RES     
     717 O           32.3420    21.8730    12.6260 O             1 RES     
     718 Si          25.7150    41.7100     2.8710 Si            1 RES     
     719 O           34.9960    19.4610     9.2060 O             1 RES     
     720 Si          41.4990    19.5180    11.1150 Si            1 RES     
     721 Si          15.2730    10.2900    12.5260 Si            1 RES     
     722 O           36.2120    18.2560     7.4380 O             1 RES     
     723 O           29.3970    36.5730     9.2700 O             1 RES     
     724 Si          22.5850    10.3320    14.4360 Si            1 RES     
     725 O            5.0300    23.2810    10.2570 O             1 RES     
     726 Si           0.3920    42.2210     4.1890 Si            1 RES     
     727 O           49.4230    18.8260    12.6940 O             1 RES     
     728 O           27.1160    27.9850     5.1480 O             1 RES     
     729 OS          48.3670     9.0130    14.5320 OS            1 RES     
     730 Si           8.2650    40.9430     4.4180 Si            1 RES     
     731 O           41.1300    22.0980     6.6650 O             1 RES     
     732 O           44.2080    17.9240    13.6000 O             1 RES     
     733 O           45.5570    31.9600     4.3400 O             1 RES     
     734 O            0.1660    19.6860     6.1490 O             1 RES     
     735 Si          33.2720     8.2920    11.3850 Si            1 RES     
     736 O           22.7000     0.6170     4.0170 O             1 RES     
     737 O           13.0960    47.7250     5.9260 O             1 RES     
     738 Si          22.7790     1.7000     2.8520 Si            1 RES     
     739 O           16.3630    13.3470     5.6630 O             1 RES     
     740 O           30.9870    48.2450    10.0420 O             1 RES     
     741 O           37.2390    49.7590     3.5030 O             1 RES     
     742 Si          30.8900    16.7310     3.3720 Si            1 RES     
     743 OS           7.2980    34.3290    14.7320 OS            1 RES     
     744 O           26.4990    44.3450     9.2110 O             1 RES     
     745 O           40.4460    40.7640    14.2890 O             1 RES     
     746 O           49.2220    26.2600     7.9750 O             1 RES     
     747 O            3.4010    39.1840    11.4160 O             1 RES     
     748 O           33.9070    31.6450     7.3760 O             1 RES     
     749 O           43.4510    15.8270    10.1300 O             1 RES     
     750 Si          46.0430    25.0580     5.6030 Si            1 RES     
     751 OS           5.7560     2.8940    15.1750 OS            1 RES     
     752 O            1.8810    26.1950     7.7000 O             1 RES     
     753 O           17.3560     2.2180    11.3970 O             1 RES     
     754 O            7.1550    17.3080     4.0380 O             1 RES     
     755 Si          42.4350    10.2010     5.9260 Si            1 RES     
     756 Si          40.6900     3.0210    11.3890 Si            1 RES     
     757 Si          44.8770    29.4980    13.5630 Si            1 RES     
     758 O           19.3480     0.7980     2.3270 O             1 RES     
     759 Si           5.6850    29.3760    13.3250 Si            1 RES     
     760 O           19.9280    29.8800    10.9250 O             1 RES     
     761 O           19.4570    20.9430     7.8900 O             1 RES     
     762 O           10.7040    13.2600     9.7220 O             1 RES     
     763 Si           0.4770     1.6020     5.9420 Si            1 RES     
     764 O            9.4100     1.3120    10.7100 O             1 RES     
     765 Si          18.7360    17.6360     9.5480 Si            1 RES     
     766 O            5.7520    47.8330    12.9800 O             1 RES     
     767 O           19.8340     7.1440     8.9810 O             1 RES     
     768 Si          18.1230     8.5540     3.6600 Si            1 RES     
     769 Si           8.9940    33.1040    10.0430 Si            1 RES     
     770 O           35.6350    37.2760     4.9160 O             1 RES     
     771 O           43.9320    30.7370     6.0400 O             1 RES     
     772 Si          10.3410    36.8300     3.1460 Si            1 RES     
     773 O           30.0060    34.1070    13.8750 O             1 RES     
     774 O           33.7480    33.1240    13.3250 O             1 RES     
     775 Si           7.3310    43.7630     4.9050 Si            1 RES     
     776 O           12.4480    23.4040     3.5910 O             1 RES     
     777 O           46.8580    41.0190     2.4920 O             1 RES     
     778 Si          11.1820    20.0760     8.8680 Si            1 RES     
     779 O           32.3270    36.7830     2.1510 O             1 RES     
     780 Si          26.8970    32.7770    12.0530 Si            1 RES     
     781 OS           9.5190    29.2930    14.2260 OS            1 RES     
     782 Si          26.7620     6.1980    14.6850 Si            1 RES     
     783 O           31.1770    38.7570     3.8720 O             1 RES     
     784 O           42.7610    36.9040     6.8720 O             1 RES     
     785 O            0.1790    45.8030    11.0080 O             1 RES     
     786 O           14.9690    39.8680     4.7060 O             1 RES     
     787 O            9.0660    14.5570    14.6320 O             1 RES     
     788 Si          26.2080    35.7160    11.4330 Si            1 RES     
     789 OS          31.9000    12.8210    15.0330 OS            1 RES     
     790 O           33.8200     1.8110    12.2470 O             1 RES     
     791 O           32.2410    24.6310     8.4590 O             1 RES     
     792 O           44.9250     6.9980    12.2900 O             1 RES     
     793 Si          10.0470     6.9750     9.0140 Si            1 RES     
     794 O            4.9290    13.9990     8.3470 O             1 RES     
     795 OS           1.2830    41.5700    14.2840 OS            1 RES     
     796 Si          23.0970    34.0080     6.9800 Si            1 RES     
     797 O            8.1090     9.4610    13.9870 O             1 RES     
     798 O           35.3680    49.2480     6.6070 O             1 RES     
     799 O           38.6330     3.1870     8.2330 O             1 RES     
     800 O            9.6790    38.1050     2.4130 O             1 RES     
     801 O           24.3640    25.9410     9.8980 O             1 RES     
     802 Si           1.3860     4.4330     6.3760 Si            1 RES     
     803 O           36.0720    25.4030    10.9870 O             1 RES     
     804 Si          33.3970     0.4560     4.1020 Si            1 RES     
     805 O           47.7770    45.4010     4.5940 O             1 RES     
     806 O           49.6460     0.9140     7.0600 O             1 RES     
     807 Si          49.7490    42.7510     8.8430 Si            1 RES     
     808 O           47.7090    20.8010    12.2820 O             1 RES     
     809 O           21.0710     5.0660     7.7670 O             1 RES     
     810 Si          17.6200     8.2770    12.5210 Si            1 RES     
     811 O           23.8990     8.0890     8.4830 O             1 RES     
     812 O           44.9940     6.8110     5.0230 O             1 RES     
     813 O           38.3840    27.7090     9.6910 O             1 RES     
     814 Si           2.3000    49.5910     9.1770 Si            1 RES     
     815 O           11.0760    17.9080    12.0650 O             1 RES     
     816 Si           2.4870    45.5200     5.7490 Si            1 RES     
     817 O           17.3130    17.3870    10.0950 O             1 RES     
     818 O           38.8030    18.8680     3.1010 O             1 RES     
     819 O            6.2230     5.3790     1.6200 O             1 RES     
     820 O           33.8930    37.3990    11.2720 O             1 RES     
     821 O           35.5880    37.9490    13.8270 O             1 RES     
     822 O            5.7350    22.1460    12.4840 O             1 RES     
     823 OS          32.1490    31.5930    15.2900 OS            1 RES     
     824 Si          30.0550    20.4620     9.8690 Si            1 RES     
     825 O            6.6910    21.9270     4.9560 O             1 RES     
     826 O           17.7340    21.6430     3.5230 O             1 RES     
     827 O           19.7000    45.8050    10.1940 O             1 RES     
     828 OS          49.6900    36.1200    14.0730 OS            1 RES     
     829 O           21.0350    10.2870     8.9720 O             1 RES     
     830 Si           0.3040    11.6260     9.5100 Si            1 RES     
     831 Si          47.8920    39.8850     5.9730 Si            1 RES     
     832 O           11.7290    48.3350    13.3710 O             1 RES     
     833 Si          25.8660    44.0270    10.5700 Si            1 RES     
     834 O            3.1940     0.0020     7.9500 O             1 RES     
     835 O           33.6470    34.4260     4.8550 O             1 RES     
     836 Si          30.7270    42.4020     8.4770 Si            1 RES     
     837 Si          34.7700    37.8690     3.8180 Si            1 RES     
     838 O           29.2810    20.1280    11.1720 O             1 RES     
     839 O           18.3850    35.8390     4.7270 O             1 RES     
     840 Si          45.2900    25.8680     9.3100 Si            1 RES     
     841 Si          42.5050    22.3130    10.4510 Si            1 RES     
     842 Si          15.7320    29.5360     3.7050 Si            1 RES     
     843 OS          16.8450    36.9720    15.4950 OS            1 RES     
     844 Si           9.6690    47.8430     5.4930 Si            1 RES     
     845 O           12.3740    48.9220     8.1810 O             1 RES     
     846 O           24.6360     0.9360     7.9300 O             1 RES     
     847 O           19.8080     3.0050     3.2320 O             1 RES     
     848 OS          45.8700     1.4490    15.4480 OS            1 RES     
     849 O           35.4430     0.0010    12.9260 O             1 RES     
     850 OS          20.8050    15.8240    14.3030 OS            1 RES     
     851 O            6.8130    27.9240     9.9120 O             1 RES     
     852 O           36.6000    38.8690     6.7020 O             1 RES     
     853 Si          10.1060    19.0830    11.7060 Si            1 RES     
     854 O           19.5560    15.3870     7.1320 O             1 RES     
     855 O           13.4780    47.4240     3.3610 O             1 RES     
     856 O           33.1620    11.7520    13.1050 O             1 RES     
     857 O           10.6930    26.6800     1.2410 O             1 RES     
     858 O            7.3390    23.2290    14.0230 O             1 RES     
     859 O           22.8730    22.8310    11.1670 O             1 RES     
     860 O           11.8470    21.1590     4.2940 O             1 RES     
     861 Si          21.9760    12.3940    12.3550 Si            1 RES     
     862 O           12.8560     9.6200     9.3420 O             1 RES     
     863 Si          15.5080    38.7700     3.6850 Si            1 RES     
     864 Si           1.0020    12.9160    13.8750 Si            1 RES     
     865 O           37.2780    42.6790     9.7680 O             1 RES     
     866 O            8.5470    10.3990     4.4330 O             1 RES     
     867 O            4.3780    46.6300     8.9120 O             1 RES     
     868 O           29.9050    45.6210     6.1860 O             1 RES     
     869 Si          33.6080    14.0500     6.7690 Si            1 RES     
     870 O            6.9040    14.7780     2.4800 O             1 RES     
     871 O           17.7290    46.9900     5.8550 O             1 RES     
     872 O           13.0630     2.0570     5.8520 O             1 RES     
     873 Si          18.2760    28.5300    13.6040 Si            1 RES     
     874 O           14.9550    20.6690     8.2220 O             1 RES     
     875 O           45.6690    20.0360    13.0090 O             1 RES     
     876 O           26.1070    41.4050     4.3750 O             1 RES     
     877 O           26.7350    26.8440     2.9100 O             1 RES     
     878 O           30.0560     2.9350     5.7890 O             1 RES     
     879 O           45.2980    21.2120     4.8160 O             1 RES     
     880 OS          25.4760     1.0680    15.2540 OS            1 RES     
     881 O            9.9770    10.8910     9.1250 O             1 RES     
     882 Si          15.7720    32.3240    11.1840 Si            1 RES     
     883 O           25.9570    32.4380     4.9530 O             1 RES     
     884 OS          49.0270    41.1120    15.1460 OS            1 RES     
     885 O           49.6260    38.0500     4.0950 O             1 RES     
     886 Si          27.7560    22.5190     3.0090 Si            1 RES     
     887 O            6.1310    18.0340    12.6980 O             1 RES     
     888 Si          29.6580    12.5070     4.9570 Si            1 RES     
     889 Si          20.6900     3.4160     4.4270 Si            1 RES     
     890 O           18.0140    37.6140     6.4480 O             1 RES     
     891 Si           7.4400    49.6480     6.7860 Si            1 RES     
     892 O           11.4600    42.1930     3.2080 O             1 RES     
     893 O            7.4840    42.2850     4.2520 O             1 RES     
     894 Si          49.3520    36.8980    12.8130 Si            1 RES     
     895 O           20.4090    41.3470     8.5420 O             1 RES     
     896 O           27.7690    15.8050     3.7780 O             1 RES     
     897 O           20.8050    22.5490     6.6200 O             1 RES     
     898 O           47.1940     9.1690     3.9050 O             1 RES     
     899 O           43.1990    32.2580    11.8910 O             1 RES     
     900 O            2.5250     1.7930    12.7490 O             1 RES     
     901 O           15.8720    31.1240     3.5680 O             1 RES     
     902 OS          26.3600     7.3580    15.6490 OS            1 RES     
     903 O           36.9670    23.0980    12.0190 O             1 RES     
     904 O           24.6860     5.7720     8.6550 O             1 RES     
     905 Si           3.3320    17.0320     2.8190 Si            1 RES     
     906 O           46.1960    19.5610     9.2260 O             1 RES     
     907 O            4.2990    11.6510     9.3740 O             1 RES     
     908 Si          43.9040    20.4480     4.8120 Si            1 RES     
     909 O           24.8680    35.8760    12.2940 O             1 RES     
     910 O           23.6580    18.9010     3.6840 O             1 RES     
     911 Si          14.1220    37.2970    12.4430 Si            1 RES     
     912 Si          48.3240     3.2150     9.4960 Si            1 RES     
     913 OS          21.4050     3.7750    14.5830 OS            1 RES     
     914 O            8.7600    45.0380    12.2370 O             1 RES     
     915 Si          35.3480    34.2110     9.5120 Si            1 RES     
     916 Si          47.0210     0.0510    12.4420 Si            1 RES     
     917 OS          37.9700    41.1620    15.2090 OS            1 RES     
     918 O           19.9310    33.8980     5.2210 O             1 RES     
     919 O           41.9330    37.9030     4.7360 O             1 RES     
     920 Si           6.2890    17.4690     9.5750 Si            1 RES     
     921 O           25.4360    11.1810    11.7760 O             1 RES     
     922 O           10.2860     1.4390     5.2360 O             1 RES     
     923 O           23.4720    43.8750     7.4750 O             1 RES     
     924 O            6.0160    44.9060     9.1190 O             1 RES     
     925 Si          12.5860     9.9290     3.0050 Si            1 RES     
     926 O            2.3750    15.4810     5.2860 O             1 RES     
     927 O           27.3190    29.2610    12.4900 O             1 RES     
     928 Si           5.0570    13.0090     9.6470 Si            1 RES     
     929 OS           0.8810    13.8890    15.1340 OS            1 RES     
     930 O           18.5420     5.3050     7.9260 O             1 RES     
     931 O           48.6410    43.7890     8.4790 O             1 RES     
     932 O           11.8310    30.9040    11.1600 O             1 RES     
     933 O           35.0670    13.4710     6.3520 O             1 RES     
     934 Si          42.0050    38.9920     3.5840 Si            1 RES     
     935 O            8.0640    40.0100     3.0870 O             1 RES     
     936 Si          28.7100    37.9400     8.8920 Si            1 RES     
     937 Si           1.4570     7.3840     7.0950 Si            1 RES     
     938 O           19.5950    31.6930     6.4870 O             1 RES     
     939 Si          20.2910    10.6330    10.3250 Si            1 RES     
     940 O           49.4830     9.5720     4.3120 O             1 RES     
     941 Si          49.2360    30.9390    10.2300 Si            1 RES     
     942 O           29.8460    41.2250     8.0550 O             1 RES     
     943 Si          19.0220    25.9820     7.4110 Si            1 RES     
     944 O           23.4690    13.3370     9.5400 O             1 RES     
     945 O           36.7630    30.9950    13.0960 O             1 RES     
     946 OS          26.5620    27.7310    14.5880 OS            1 RES     
     947 Si          23.9240    24.9980     8.7160 Si            1 RES     
     948 O           33.2710    37.9530    13.2690 O             1 RES     
     949 O           22.4530    21.1830    13.0020 O             1 RES     
     950 OS          11.9860    33.5310    15.7600 OS            1 RES     
     951 O           25.8540    25.8150     5.0220 O             1 RES     
     952 O           40.4720    31.4740     8.0220 O             1 RES     
     953 Si          49.0790     9.2880     7.9830 Si            1 RES     
     954 O            6.2560     6.2770    13.5190 O             1 RES     
     955 Si          34.2060    40.7980     4.4520 Si            1 RES     
     956 O           38.6100    37.7160     3.1690 O             1 RES     
     957 Si           7.0770    20.2490     8.8390 Si            1 RES     
     958 OS           2.5350     9.1180    14.9460 OS            1 RES     
     959 Si          48.9090    46.5840    11.4290 Si            1 RES     
     960 Si          34.5520     9.9310     7.0270 Si            1 RES     
     961 Si          20.0360    31.2220    10.1190 Si            1 RES     
     962 O            2.8930    22.2920     2.5400 O             1 RES     
     963 Si          27.6670    16.0710     7.8400 Si            1 RES     
     964 O           28.8060    13.8260     5.0430 O             1 RES     
     965 O           22.2570    24.7790    14.1770 O             1 RES     
     966 Si          24.8180    12.7050    10.9700 Si            1 RES     
     967 Si          48.9160    33.1910     8.2340 Si            1 RES     
     968 Si          19.3220    38.0950    12.5930 Si            1 RES     
     969 Si           1.9380    35.8990    11.6940 Si            1 RES     
     970 OS           5.2630    22.3380    14.8900 OS            1 RES     
     971 O           49.5410    47.6210    12.5080 O             1 RES     
     972 O           45.7460    37.2740    11.2740 O             1 RES     
     973 O           41.7790    30.2140    12.0810 O             1 RES     
     974 O            9.6630    30.5690    12.2770 O             1 RES     
     975 Si          19.9030    14.9890     8.5670 Si            1 RES     
     976 O           25.7710     4.4830     6.4720 O             1 RES     
     977 O           45.7780    22.3830    11.6510 O             1 RES     
     978 Si          10.2130    48.5270    13.7610 Si            1 RES     
     979 O           48.9850    32.2290     4.6010 O             1 RES     
     980 Si          37.7750    39.8480     6.4840 Si            1 RES     
     981 OS          12.0190    38.7130    15.5210 OS            1 RES     
     982 O            8.1810     1.0180     6.6000 O             1 RES     
     983 OS           1.8350     6.6180    15.5940 OS            1 RES     
     984 Si          29.5330    33.3360     5.4390 Si            1 RES     
     985 O           46.2350    23.4670     5.7550 O             1 RES     
     986 Si          17.2150    28.3100     6.4770 Si            1 RES     
     987 O           23.2530     7.7300     5.9480 O             1 RES     
     988 O           20.2230    41.7250     6.0320 O             1 RES     
     989 Si          14.1060     2.9270    12.3560 Si            1 RES     
     990 O           19.4250    26.0820     8.9530 O             1 RES     
     991 Si           7.2080    48.9900     9.7760 Si            1 RES     
     992 O           13.0180    37.7460    13.3970 O             1 RES     
     993 Si          49.0280    16.6680     9.7360 Si            1 RES     
     994 O           38.7140    39.7180     7.7470 O             1 RES     
     995 OS           9.2220    24.8510    14.4470 OS            1 RES     
     996 Si          30.7840    46.8420     5.9520 Si            1 RES     
     997 O           10.4830    29.8580     4.8470 O             1 RES     
     998 O           43.3200    41.9460     1.6670 O             1 RES     
     999 Si          18.2410    12.9120    10.1490 Si            1 RES     
    1000 Si          41.1410    35.1330    13.6130 Si            1 RES     
    1001 O           10.7840    43.1810    10.3760 O             1 RES     
    1002 O           42.2450    42.8690     9.2390 O             1 RES     
    1003 Si          28.5000    22.7930     8.3570 Si            1 RES     
    1004 O            4.2370    21.0310    10.8790 O             1 RES     
    1005 O           31.8450     8.4730    11.9550 O             1 RES     
    1006 O           44.0220    22.2570     9.9290 O             1 RES     
    1007 Si          39.1410    49.3650     6.8780 Si            1 RES     
    1008 O           10.8590    15.6080    13.4570 O             1 RES     
    1009 Si           5.3790     0.2450     4.5480 Si            1 RES     
    1010 O            8.0870    10.3600     7.2540 O             1 RES     
    1011 O           29.9120    43.3700     9.5960 O             1 RES     
    1012 Si          30.9070    25.1600    14.4120 Si            1 RES     
    1013 Si          43.3470    17.3420     9.7490 Si            1 RES     
    1014 O           21.2180    38.5560     4.1250 O             1 RES     
    1015 Si          46.2780    18.2610    10.0530 Si            1 RES     
    1016 O           19.3690    39.5920     7.2420 O             1 RES     
    1017 O           47.3990    13.5140     4.6950 O             1 RES     
    1018 Si          29.8150    33.5000    12.2720 Si            1 RES     
    1019 O           29.7090     4.6080     3.9520 O             1 RES     
    1020 O           24.4790     6.5760     3.9720 O             1 RES     
    1021 Si          45.4830     0.4720     2.9760 Si            1 RES     
    1022 O           42.9600    21.7040     4.9030 O             1 RES     
    1023 O           11.2310    19.0010     2.7990 O             1 RES     
    1024 Si          30.8700     8.1510     3.5780 Si            1 RES     
    1025 OS          16.8270    17.6410    14.8210 OS            1 RES     
    1026 Si          10.7240    44.5390     9.5680 Si            1 RES     
    1027 O           44.5910     3.2770    10.0920 O             1 RES     
    1028 O           40.6880    12.9890    12.1640 O             1 RES     
    1029 O           23.7620    34.0750     5.5450 O             1 RES     
    1030 O           28.5770    19.4320     4.6810 O             1 RES     
    1031 Si          48.8450    32.4750     3.0400 Si            1 RES     
    1032 OS          40.7360    34.0150    14.6210 OS            1 RES     
    1033 O            2.2640    28.7650    11.3580 O             1 RES     
    1034 O            8.7090    18.4050    12.0580 O             1 RES     
    1035 Si          36.6600    29.8290     3.7120 Si            1 RES     
    1036 O           24.6190    21.3980     7.7070 O             1 RES     
    1037 Si          39.7760    27.3710    10.4760 Si            1 RES     
    1038 O           48.4250    30.9370    11.5870 O             1 RES     
    1039 O           36.1050     3.2680     8.2910 O             1 RES     
    1040 O           12.4430     1.3040     8.2790 O             1 RES     
    1041 Si          33.4360    16.4340    10.8380 Si            1 RES     
    1042 Si          30.7530     4.1730     5.0870 Si            1 RES     
    1043 O           10.8410    34.8060    13.8500 O             1 RES     
    1044 O            6.1070    38.0600     5.8620 O             1 RES     
    1045 OS           4.9900    43.2930    16.0260 OS            1 RES     
    1046 O           38.6680    36.4770     8.9480 O             1 RES     
    1047 Si          11.1630     9.6020     5.7720 Si            1 RES     
    1048 O           39.5670    11.5030    13.8690 O             1 RES     
    1049 Si           7.2630    35.2140    13.4180 Si            1 RES     
    1050 OS          29.3670     2.6850    15.8010 OS            1 RES     
    1051 Si          40.3730    14.4940     8.7190 Si            1 RES     
    1052 O           49.6810    32.3530     7.0340 O             1 RES     
    1053 O           14.2170    22.5440    13.1760 O             1 RES     
    1054 O           33.6960    15.5260     7.1440 O             1 RES     
    1055 O           34.6540    49.6130     3.8450 O             1 RES     
    1056 O            0.6790    30.3410     5.3820 O             1 RES     
    1057 Si          19.0850    48.6460    12.2470 Si            1 RES     
    1058 OS           1.4720    11.5150    14.5240 OS            1 RES     
    1059 Si          22.1510     2.9900    10.5480 Si            1 RES     
    1060 O           34.7300    36.8210     2.4400 O             1 RES     
    1061 O            2.4910    18.3390     2.9200 O             1 RES     
    1062 Si          46.3210    41.5570     3.9180 Si            1 RES     
    1063 O           35.5150    12.7300     1.6720 O             1 RES     
    1064 O           30.9560    10.9060    13.9280 O             1 RES     
    1065 O           20.6750    35.7400     9.5880 O             1 RES     
    1066 O           44.1660    26.3470     8.2340 O             1 RES     
    1067 Si           0.5010    25.4290     7.9210 Si            1 RES     
    1068 O           25.2210    39.4880     5.9300 O             1 RES     
    1069 O           46.3090    35.2350    12.6710 O             1 RES     
    1070 Si          37.1430    14.4360    13.9330 Si            1 RES     
    1071 O           19.1550     7.3510     3.9290 O             1 RES     
    1072 O           24.3180    25.4750     7.2570 O             1 RES     
    1073 O           44.5330    42.4470    10.6150 O             1 RES     
    1074 O           32.8890    37.2560     8.9580 O             1 RES     
    1075 O            1.4300     7.6250    13.2710 O             1 RES     
    1076 Si          10.0770    18.5520     6.3800 Si            1 RES     
    1077 Si          15.4110    12.2030     8.9330 Si            1 RES     
    1078 Si          23.5250    22.0570    12.3530 Si            1 RES     
    1079 O           32.6580    29.0700    10.7970 O             1 RES     
    1080 O           18.9780    11.5120    10.0640 O             1 RES     
    1081 O           25.6930    19.3670    13.4870 O             1 RES     
    1082 O           42.1530     9.8200     4.4030 O             1 RES     
    1083 O           31.5440    17.1520    13.7880 O             1 RES     
    1084 Si          37.0160    43.9250    13.0280 Si            1 RES     
    1085 O           18.3820     7.7760    11.1990 O             1 RES     
    1086 O           38.9300    21.2260    12.9580 O             1 RES     
    1087 Si          19.9120    25.9010    10.4390 Si            1 RES     
    1088 O           29.4740    12.4970    12.3920 O             1 RES     
    1089 Si          21.2670    39.6860     3.0300 Si            1 RES     
    1090 O           10.3610    44.5950     2.8460 O             1 RES     
    1091 O           19.7400    45.9700     3.4200 O             1 RES     
    1092 Si          18.8430    10.6020     5.8770 Si            1 RES     
    1093 O           11.3070    24.0840     8.6510 O             1 RES     
    1094 O           21.1670     1.4560    13.9310 O             1 RES     
    1095 O            8.0970    29.2030     4.1690 O             1 RES     
    1096 O           33.8360    10.8010     2.9710 O             1 RES     
    1097 O            1.1100    20.6060     3.1090 O             1 RES     
    1098 Si          46.7980    20.7630     8.3390 Si            1 RES     
    1099 O           12.9400    38.4750     8.8170 O             1 RES     
    1100 Si          29.6600    44.8580    10.0510 Si            1 RES     
    1101 O           11.2120    15.4640     8.3510 O             1 RES     
    1102 Si          39.6190     2.0610     8.6460 Si            1 RES     
    1103 O           19.3910    39.6610    12.7410 O             1 RES     
    1104 O           47.5620     7.4470     5.5700 O             1 RES     
    1105 Si          39.2700    36.7440    10.3940 Si            1 RES     
    1106 O           43.0340    18.0030     8.3440 O             1 RES     
    1107 Si           7.5990    15.1760    14.5160 Si            1 RES     
    1108 Si          31.7660     6.8110     9.2550 Si            1 RES     
    1109 O            2.4310    20.7180     6.6690 O             1 RES     
    1110 Si          41.7730    44.6900    12.3280 Si            1 RES     
    1111 Si          37.5220    22.0300    13.0870 Si            1 RES     
    1112 O           28.3720    33.8490     7.0030 O             1 RES     
    1113 O           12.9090    27.3060    12.5350 O             1 RES     
    1114 Si           4.1990     5.0560    10.8450 Si            1 RES     
    1115 O           39.9540     5.4880     5.1340 O             1 RES     
    1116 OS          20.7270    20.6660    15.7570 OS            1 RES     
    1117 Si           2.1290    14.5270     4.0690 Si            1 RES     
    1118 Si          23.8080     8.7590     7.0580 Si            1 RES     
    1119 O           15.0930     0.7780     4.4410 O             1 RES     
    1120 O           34.8950     4.1750     6.5650 O             1 RES     
    1121 O           34.3920    29.4680    12.5620 O             1 RES     
    1122 Si          15.1170    13.2130    13.2810 Si            1 RES     
    1123 O            3.3300    22.7720     8.3380 O             1 RES     
    1124 O           12.2920    44.5360     9.1110 O             1 RES     
    1125 O            6.9350    20.8710     7.3810 O             1 RES     
    1126 Si           8.2440    37.4110     8.3920 Si            1 RES     
    1127 O           25.8330    15.4440    13.8280 O             1 RES     
    1128 Si          13.5490    34.3190    11.9030 Si            1 RES     
    1129 Si          19.7110     7.5830    10.4450 Si            1 RES     
    1130 Si          28.6080    15.3720     4.9640 Si            1 RES     
    1131 O           39.9930     4.1720     3.0720 O             1 RES     
    1132 Si          25.0340    32.0940     8.5620 Si            1 RES     
    1133 OS          40.7010     2.1550    15.2440 OS            1 RES     
    1134 Si          20.9400    24.0480    14.7090 Si            1 RES     
    1135 O           43.6290    33.2150     5.0040 O             1 RES     
    1136 Si          11.3430    41.5240     4.6710 Si            1 RES     
    1137 Si          27.0130    13.1390     8.3330 Si            1 RES     
    1138 Si          48.9600    13.6160     4.9470 Si            1 RES     
    1139 O           26.9220    29.1920     9.9540 O             1 RES     
    1140 Si           6.3490    26.5680     6.4490 Si            1 RES     
    1141 O           26.2180     3.1580    10.9840 O             1 RES     
    1142 O           33.2120    16.3800     9.3320 O             1 RES     
    1143 O           22.4110    48.4080    14.1910 O             1 RES     
    1144 O            6.4260    34.7250    12.1420 O             1 RES     
    1145 O           19.1830    48.4110     2.8480 O             1 RES     
    1146 Si           2.8540    46.5740     8.6460 Si            1 RES     
    1147 O           40.5630    35.5950     5.7950 O             1 RES     
    1148 O           33.2630    10.6490     7.6910 O             1 RES     
    1149 O           30.9350    23.7710    13.4950 O             1 RES     
    1150 O           44.8170    49.4930     6.4370 O             1 RES     
    1151 O           15.8050     0.2400    11.7960 O             1 RES     
    1152 Si          29.1690    40.2680     6.9740 Si            1 RES     
    1153 Si           3.3640     3.1370    13.0630 Si            1 RES     
    1154 O           24.2300    32.0940     9.9360 O             1 RES     
    1155 OS          12.1450    28.5980    14.5190 OS            1 RES     
    1156 O           36.0060    14.0500    12.9430 O             1 RES     
    1157 Si           4.1400    31.8930    12.2360 Si            1 RES     
    1158 O           13.9600    35.7890    11.8600 O             1 RES     
    1159 O           10.1560    17.0980     6.7790 O             1 RES     
    1160 O           31.4100    38.4720    11.0010 O             1 RES     
    1161 O           16.3110     9.1870    12.1930 O             1 RES     
    1162 O           49.7160     6.1130    11.9960 O             1 RES     
    1163 Si          46.2190     6.7850     6.0930 Si            1 RES     
    1164 OS          15.5620    23.4400    15.1250 OS            1 RES     
    1165 O           49.4500     8.6740    12.1600 O             1 RES     
    1166 Si          37.3660     3.2600    13.5820 Si            1 RES     
    1167 O            0.5590    24.8310     9.4250 O             1 RES     
    1168 OS          45.0770     3.5510    14.3830 OS            1 RES     
    1169 O           31.0190    12.8100     4.2520 O             1 RES     
    1170 O           42.5120    13.8110     3.3200 O             1 RES     
    1171 O           44.9820    35.0040     3.9540 O             1 RES     
    1172 Si          47.8900    40.3320     9.3920 Si            1 RES     
    1173 O           40.7650    19.2600    12.4870 O             1 RES     
    1174 O           49.3310    34.6780     8.0710 O             1 RES     
    1175 O            3.8620    16.9500     1.4150 O             1 RES     
    1176 O            6.5610     9.2230     3.8240 O             1 RES     
    1177 O           34.6850    12.5290    11.3780 O             1 RES     
    1178 Si          24.1050    39.4900    10.4800 Si            1 RES     
    1179 O           33.2570     0.2650     5.6660 O             1 RES     
    1180 O           22.7900     9.8900     7.1890 O             1 RES     
    1181 O           32.6950    35.6060     6.7950 O             1 RES     
    1182 O            5.9340    28.2390    12.2320 O             1 RES     
    1183 O           29.9530    15.9870     4.5410 O             1 RES     
    1184 Si          45.8740    13.8780     8.0790 Si            1 RES     
    1185 O           43.1760    24.2670    13.5710 O             1 RES     
    1186 O           34.1640    17.8210    10.9570 O             1 RES     
    1187 OS          18.3720    44.3820    14.6580 OS            1 RES     
    1188 Si          49.1160    20.2060    11.9690 Si            1 RES     
    1189 O           15.7400    10.8380     8.1330 O             1 RES     
    1190 Si           5.7440    46.3750     9.5310 Si            1 RES     
    1191 O           38.2740    24.3050    10.1730 O             1 RES     
    1192 O           43.1520     1.7600     6.8610 O             1 RES     
    1193 O           24.4440    16.8930     9.2070 O             1 RES     
    1194 Si          47.1230    44.1060     8.0430 Si            1 RES     
    1195 Si          32.3110    13.8020     4.0170 Si            1 RES     
    1196 O           27.0840     0.2090     8.7460 O             1 RES     
    1197 Si          42.5260    24.7440    12.2770 Si            1 RES     
    1198 O           48.5480     9.5350     6.5140 O             1 RES     
    1199 O           32.0830     5.2400     9.5810 O             1 RES     
    1200 Si          30.7770     6.9750     6.3810 Si            1 RES     
    1201 O           32.6560    17.3460     3.5770 O             1 RES     
    1202 Si          22.9830    46.9500     5.2330 Si            1 RES     
    1203 Si          10.7820    22.8880     7.5800 Si            1 RES     
    1204 O           37.9150    35.4680     2.4360 O             1 RES     
    1205 Si          19.3800    43.8850    13.4490 Si            1 RES     
    1206 Si          28.5620    10.2560     3.2980 Si            1 RES     
    1207 O           39.5970     8.4610     6.8880 O             1 RES     
    1208 O           28.0860    27.0470    12.8440 O             1 RES     
    1209 Si          12.4540     0.0520     9.2110 Si            1 RES     
    1210 O           46.1330    18.2330    11.5320 O             1 RES     
    1211 O           25.1730     9.3400     6.4250 O             1 RES     
    1212 OS          29.9060    14.1580    14.2690 OS            1 RES     
    1213 O           33.3330    44.0330    10.0310 O             1 RES     
    1214 O           41.8390    24.0760     5.2260 O             1 RES     
    1215 Si          37.3600    17.2670     7.9960 Si            1 RES     
    1216 Si          28.2610    28.7300     5.8670 Si            1 RES     
    1217 Si          30.2820     8.1480    12.0040 Si            1 RES     
    1218 O            3.8730     2.3210     7.7110 O             1 RES     
    1219 O            9.8770    49.4910    12.5530 O             1 RES     
    1220 O           14.0220    10.2330    11.5570 O             1 RES     
    1221 Si          22.5800    13.5060     8.3100 Si            1 RES     
    1222 O           49.1180     1.8730     9.3660 O             1 RES     
    1223 OS          10.3530    10.2990    14.1460 OS            1 RES     
    1224 Si          48.9490    14.0960     8.0240 Si            1 RES     
    1225 Si          46.8790     3.8960     6.8860 Si            1 RES     
    1226 O           35.4650    32.8620     6.0240 O             1 RES     
    1227 O           27.1510    37.9040     8.7450 O             1 RES     
    1228 Si          17.7620    23.1290     3.9820 Si            1 RES     
    1229 O           26.4320    17.0710     7.9550 O             1 RES     
    1230 O           23.7870    28.9780    13.9750 O             1 RES     
    1231 O           14.9030    22.0870     6.1110 O             1 RES     
    1232 O           16.5420    43.3890     8.1150 O             1 RES     
    1233 O            0.9190    22.9880     4.2150 O             1 RES     
    1234 Si          17.7200    13.2740     4.9340 Si            1 RES     
    1235 O            5.8700     8.7590    13.6460 O             1 RES     
    1236 O            5.1420    42.4580     8.9610 O             1 RES     
    1237 O           34.5830     8.8080     5.8920 O             1 RES     
    1238 O           27.9120    44.4110     6.9660 O             1 RES     
    1239 Si          48.7060    12.1020    12.1750 Si            1 RES     
    1240 O           18.3710    13.4360    11.6530 O             1 RES     
    1241 O           40.0080     4.3710    11.6840 O             1 RES     
    1242 O           18.3840    14.6960     5.1130 O             1 RES     
    1243 O            5.2630    46.3220    11.0400 O             1 RES     
    1244 O           47.8390    21.1070     5.3680 O             1 RES     
    1245 Si          26.3970    15.0080    12.4620 Si            1 RES     
    1246 O           42.3170    26.3140     6.2530 O             1 RES     
    1247 O           25.3350     7.2390    10.7060 O             1 RES     
    1248 Si          31.4810    26.0880     8.1040 Si            1 RES     
    1249 O           49.2420    36.2610     5.9950 O             1 RES     
    1250 O           46.9280     2.4810     9.7930 O             1 RES     
    1251 O           36.5390    30.8970     7.4160 O             1 RES     
    1252 O           32.5680    21.7720     6.0700 O             1 RES     
    1253 O            1.2920    19.6120     8.2810 O             1 RES     
    1254 O           24.1240    12.2340     5.0580 O             1 RES     
    1255 Si           3.8400     3.8590     8.0030 Si            1 RES     
    1256 Si           2.7330     7.5870     9.8720 Si            1 RES     
    1257 Si           3.3400    38.4150    12.7900 Si            1 RES     
    1258 OS          17.5840    22.2940    14.2440 OS            1 RES     
    1259 O            7.5060    25.9090    11.4880 O             1 RES     
    1260 Si           8.4160    24.7610     7.8710 Si            1 RES     
    1261 O            1.2370    16.9980    13.2580 O             1 RES     
    1262 O           14.4070     2.7210     7.7180 O             1 RES     
    1263 O           25.0570    40.4720    11.2770 O             1 RES     
    1264 O           21.3450    31.9200     4.4470 O             1 RES     
    1265 Si          11.9350    39.3810     9.6200 Si            1 RES     
    1266 Si          12.9040     2.3990     7.3500 Si            1 RES     
    1267 O           34.6530     4.1580     4.0910 O             1 RES     
    1268 Si          20.6580    32.5660     5.7020 Si            1 RES     
    1269 O            9.9550     6.7670    10.5320 O             1 RES     
    1270 OS          18.4200    12.3350    14.1680 OS            1 RES     
    1271 O            6.3270    49.7210     5.6860 O             1 RES     
    1272 O           28.0230    23.1170     4.3880 O             1 RES     
    1273 Si          13.5940     1.3770     4.4050 Si            1 RES     
    1274 O           26.0460    12.7870     7.0520 O             1 RES     
    1275 Si           8.1330    39.0510    11.0320 Si            1 RES     
    1276 O           29.3400     0.0210     9.9030 O             1 RES     
    1277 O           20.6290    19.5290    12.8240 O             1 RES     
    1278 O           46.3110    16.6070     5.0460 O             1 RES     
    1279 O           35.1690     9.0720     8.2150 O             1 RES     
    1280 O           22.7640    36.2150    10.5800 O             1 RES     
    1281 O           21.7240     4.2780    11.3080 O             1 RES     
    1282 O           30.1630    19.2540     8.8420 O             1 RES     
    1283 O           10.6230    37.1910    13.7770 O             1 RES     
    1284 OS          39.8690    47.9840    14.0180 OS            1 RES     
    1285 Si          15.8320    17.6140    10.7090 Si            1 RES     
    1286 OS          22.3720    44.6030    15.7930 OS            1 RES     
    1287 O           49.4760    39.6740     5.8810 O             1 RES     
    1288 Si          39.0210    26.4570    13.3240 Si            1 RES     
    1289 O           17.5210    13.0590     3.3260 O             1 RES     
    1290 Si          13.2090    43.8680     5.5150 Si            1 RES     
    1291 OS          42.7060    40.5940    15.8250 OS            1 RES     
    1292 O           36.7560    28.3420     3.2740 O             1 RES     
    1293 O            0.1930     8.2110     7.5440 O             1 RES     
    1294 O           40.9160     8.9220     9.0310 O             1 RES     
    1295 OS           6.2970    11.2340    14.4080 OS            1 RES     
    1296 OS           7.4210    16.1880    15.7340 OS            1 RES     
    1297 Si          35.5870    48.5000    12.5270 Si            1 RES     
    1298 OS          46.7670    15.3050    15.7320 OS            1 RES     
    1299 O           32.5230    30.9610    12.8910 O             1 RES     
    1300 Si          26.3850    30.8540     4.7940 Si            1 RES     
    1301 Si          21.2500     0.8260    12.5180 Si            1 RES     
    1302 O            8.7310    35.5060    12.9560 O             1 RES     
    1303 O           21.1900    32.7920    13.7720 O             1 RES     
    1304 O           28.7420    44.1770    13.7490 O             1 RES     
    1305 O           27.9370    28.7950     7.4510 O             1 RES     
    1306 Si          32.3110     1.7010    11.9900 Si            1 RES     
    1307 O           20.8080     3.1280     6.0350 O             1 RES     
    1308 O           40.3960    19.4270    10.0400 O             1 RES     
    1309 O            8.1620    44.6540     3.9810 O             1 RES     
    1310 O           31.2400    47.1840     7.4300 O             1 RES     
    1311 O           23.7120     2.8520    10.9510 O             1 RES     
    1312 Si          21.9530    49.8670     5.1650 Si            1 RES     
    1313 O           28.4080    32.9060    12.4150 O             1 RES     
    1314 Si           2.6000    39.6720    10.1250 Si            1 RES     
    1315 Si          14.2540    20.1500     9.5970 Si            1 RES     
    1316 Si          33.7110    11.3420    11.5940 Si            1 RES     
    1317 O            2.3200    36.0940    10.2110 O             1 RES     
    1318 Si          33.6340    36.2480     7.9020 Si            1 RES     
    1319 Si          41.6060     1.6380    14.0500 Si            1 RES     
    1320 OS          38.0030    27.3230    14.0780 OS            1 RES     
    1321 O           10.7800     5.6640    12.5930 O             1 RES     
    1322 O           24.1490    43.2310    10.0890 O             1 RES     
    1323 O           43.1390    28.5830    10.8060 O             1 RES     
    1324 O           47.2410     5.9820    11.9870 O             1 RES     
    1325 Si          13.1380    10.7930    10.3950 Si            1 RES     
    1326 O           17.1380    33.0670    11.5390 O             1 RES     
    1327 Si          26.4910    29.8150    11.3490 Si            1 RES     
    1328 O           18.5480    12.0030     5.4170 O             1 RES     
    1329 O           31.5450    35.9710     4.5650 O             1 RES     
    1330 OS          44.7380    47.6000    14.9660 OS            1 RES     
    1331 Si           0.7740    47.0520     3.7350 Si            1 RES     
    1332 O            2.5520     7.5940     3.3250 O             1 RES     
    1333 Si          45.9920    32.1560     8.3110 Si            1 RES     
    1334 O           44.3380    46.0900     7.4270 O             1 RES     
    1335 Si          43.0130    29.5670     5.5960 Si            1 RES     
    1336 Si          43.2570     4.0900    10.1390 Si            1 RES     
    1337 O            6.7530    10.6080    12.1240 O             1 RES     
    1338 Si          27.4220     3.6870    10.1520 Si            1 RES     
    1339 OS          48.3360    17.2730    15.7300 OS            1 RES     
    1340 O           20.0630    39.6790     1.9350 O             1 RES     
    1341 O           17.8060     0.4220     4.2120 O             1 RES     
    1342 O           38.2740     6.0910    11.2360 O             1 RES     
    1343 O            4.5930    39.7580     5.1360 O             1 RES     
    1344 Si          28.9100     1.9180     6.1170 Si            1 RES     
    1345 O           11.7560     6.7500     4.0410 O             1 RES     
    1346 Si          24.7800    37.9610     5.9250 Si            1 RES     
    1347 O            9.0370     8.2650     8.6630 O             1 RES     
    1348 O           24.0770    12.4170     2.5300 O             1 RES     
    1349 O           37.7560    32.9340     2.4400 O             1 RES     
    1350 OS           4.5950    49.1400    14.5170 OS            1 RES     
    1351 O           24.6140    21.0140    11.8510 O             1 RES     
    1352 O           22.9150    25.2500     2.6540 O             1 RES     
    1353 O           13.2480    46.0200    12.6720 O             1 RES     
    1354 O           10.7970    47.4620     6.5500 O             1 RES     
    1355 Si          21.8370    41.1810     9.1520 Si            1 RES     
    1356 OS          41.2430    31.7290    14.0450 OS            1 RES     
    1357 O            9.1480     7.9230     3.5290 O             1 RES     
    1358 Si          40.5370     9.9940    10.0790 Si            1 RES     
    1359 O            5.7350     5.3190    11.2190 O             1 RES     
    1360 O            1.9570    38.9090     4.9630 O             1 RES     
    1361 O           39.2870    40.1540    10.0700 O             1 RES     
    1362 O            3.8470    17.0590     4.3490 O             1 RES     
    1363 O           17.8950    41.6230     7.1700 O             1 RES     
    1364 Si          41.1600    32.1080     9.2800 Si            1 RES     
    1365 Si           7.5300    18.7090     4.5500 Si            1 RES     
    1366 O           39.2430    10.7900     9.7430 O             1 RES     
    1367 O           38.8950    14.7690     9.3090 O             1 RES     
    1368 O            6.8580    36.6660    13.7220 O             1 RES     
    1369 Si          32.5590    37.3940    10.4550 Si            1 RES     
    1370 O           36.1270    46.5280     6.8370 O             1 RES     
    1371 O           35.6710     7.5290     3.6010 O             1 RES     
    1372 Si          41.2410     5.5420     6.0670 Si            1 RES     
    1373 O           44.3530    47.2570     5.2990 O             1 RES     
    1374 O           21.0960    11.5510    11.3260 O             1 RES     
    1375 O           36.3140    47.7270     2.8030 O             1 RES     
    1376 Si           3.2690     7.8770     4.6890 Si            1 RES     
    1377 Si          44.3260    32.8360    10.9620 Si            1 RES     
    1378 O            5.9080    44.4830     4.7470 O             1 RES     
    1379 O           37.8670    48.5510     6.9750 O             1 RES     
    1380 Si          47.7890    29.7170     7.8140 Si            1 RES     
    1381 O           10.5360    45.8010    10.8160 O             1 RES     
    1382 O           30.0420     6.9110     3.1560 O             1 RES     
    1383 O           29.3280    25.3040     5.3200 O             1 RES     
    1384 O            2.6590     4.1220     4.7300 O             1 RES     
    1385 O            3.6920    39.0040     2.9030 O             1 RES     
    1386 O           46.0630     7.6860    10.0550 O             1 RES     
    1387 O           16.5760    13.7940    13.5320 O             1 RES     
    1388 Si          42.8980    39.7550    11.7930 Si            1 RES     
    1389 Si          44.6300    32.1160     5.5620 Si            1 RES     
    1390 Si           6.6730    28.6420     4.1830 Si            1 RES     
    1391 OS          13.7190    26.7830    15.1490 OS            1 RES     
    1392 O           35.2920    12.1580     4.2350 O             1 RES     
    1393 O           23.1660    15.8090     4.5290 O             1 RES     
    1394 O           36.2370    33.6100    13.1820 O             1 RES     
    1395 O            7.7920    19.5000     3.2450 O             1 RES     
    1396 Si          39.0220    39.1650     3.7950 Si            1 RES     
    1397 O           38.6900    39.3440     5.2950 O             1 RES     
    1398 Si          20.5840    46.4850     9.0350 Si            1 RES     
    1399 Si          26.1220     6.8770     3.7100 Si            1 RES     
    1400 O           20.6050    27.2480    10.9330 O             1 RES     
    1401 O           42.4750    43.0040     4.0240 O             1 RES     
    1402 O           48.6060    16.6050     3.7510 O             1 RES     
    1403 O           31.7590    28.7610    13.1040 O             1 RES     
    1404 O           17.4440    10.2380     6.5740 O             1 RES     
    1405 O           29.8050     9.3610     3.5760 O             1 RES     
    1406 OS          10.0160     7.8800    15.3240 OS            1 RES     
    1407 O           24.9300     2.2730     5.9240 O             1 RES     
    1408 Si          31.2540    22.1560    13.7340 Si            1 RES     
    1409 O           45.0480    49.2860     3.9300 O             1 RES     
    1410 O           48.9510    41.4400     9.0160 O             1 RES     
    1411 Si          23.2200    44.8880     8.7860 Si            1 RES     
    1412 O           46.5110    30.6330     8.0910 O             1 RES     
    1413 Si           2.9310    20.3950    11.4460 Si            1 RES     
    1414 O           37.0440    36.4570     7.0990 O             1 RES     
    1415 O           23.2340    45.3400    13.3730 O             1 RES     
    1416 Si           4.5790    17.8720    12.0130 Si            1 RES     
    1417 O           31.9420    31.6430     9.0490 O             1 RES     
    1418 Si          20.8980    21.6300     7.9010 Si            1 RES     
    1419 O           20.6810    24.5750    10.5290 O             1 RES     
    1420 Si          49.8680    39.7510    11.6200 Si            1 RES     
    1421 O           46.8890    41.2540    10.2250 O             1 RES     
    1422 OS          27.9750    42.7650    15.5640 OS            1 RES     
    1423 Si          41.9310    29.5470    10.6970 Si            1 RES     
    1424 O            0.9740     5.9620     6.5700 O             1 RES     
    1425 O           15.6560    34.3010     8.0550 O             1 RES     
    1426 O           11.1760    49.7570    10.1540 O             1 RES     
    1427 O           16.9850    20.3870     6.9930 O             1 RES     
    1428 O           21.1540    22.3680     9.2110 O             1 RES     
    1429 Si           7.0370     4.9610    12.2210 Si            1 RES     
    1430 O            9.8820    35.6720     2.0770 O             1 RES     
    1431 O            2.4470     0.3440    10.6000 O             1 RES     
    1432 Si          34.4530    45.6960    12.7250 Si            1 RES     
    1433 O           35.4760     0.9680    10.6270 O             1 RES     
    1434 OS          36.0920     3.5090    14.4360 OS            1 RES     
    1435 O           38.3100    16.9160     6.8450 O             1 RES     
    1436 Si          49.5990    10.9130     3.3680 Si            1 RES     
    1437 O           30.3820    40.4390    11.8390 O             1 RES     
    1438 O            2.3780    48.0490     9.1800 O             1 RES     
    1439 O           11.9200    35.5030     8.8340 O             1 RES     
    1440 Si          11.6610    42.2820    11.3350 Si            1 RES     
    1441 O           16.2840     2.2140     9.1100 O             1 RES     
    1442 O           28.8800    23.1380     6.8910 O             1 RES     
    1443 Si          15.1530     8.2330     3.0780 Si            1 RES     
    1444 O           37.6080    16.6840     3.1480 O             1 RES     
    1445 O           16.5280    23.4710     4.8550 O             1 RES     
    1446 O            2.0400    19.3430    10.6480 O             1 RES     
    1447 O           26.6770    32.2300     8.4070 O             1 RES     
    1448 O           34.8490    45.1810     8.5100 O             1 RES     
    1449 O           44.2890    39.3050    11.3820 O             1 RES     
    1450 O           33.8490    20.4930    11.2560 O             1 RES     
    1451 O           42.6690    41.1440    11.1220 O             1 RES     
    1452 O            1.5370    26.3480    11.4820 O             1 RES     
    1453 Si          28.9500    49.9680    13.8490 Si            1 RES     
    1454 O            6.7110    37.0250     8.4600 O             1 RES     
    1455 O           40.4520    26.0420     4.4160 O             1 RES     
    1456 Si           1.4310    29.3570     4.3530 Si            1 RES     
    1457 Si          29.4410    44.1440     6.3630 Si            1 RES     
    1458 Si          34.5620    37.2000    12.6940 Si            1 RES     
    1459 O           15.4150    17.9690     3.7480 O             1 RES     
    1460 OS          20.4180    47.7500    16.1300 OS            1 RES     
    1461 O           48.6890    29.9460     9.1440 O             1 RES     
    1462 Si          19.7040    35.1190     4.3010 Si            1 RES     
    1463 O           24.8300    49.2830    13.5330 O             1 RES     
    1464 Si           9.2350    40.2780     8.5050 Si            1 RES     
    1465 O           10.1700    22.6780     3.4770 O             1 RES     
    1466 O           28.0260    48.4980     3.9550 O             1 RES     
    1467 Si          10.2590     7.0960     4.3300 Si            1 RES     
    1468 Si          10.7680     0.3680     4.1590 Si            1 RES     
    1469 O            7.4330    33.4430    10.3300 O             1 RES     
    1470 O           37.5930    12.8270     9.0240 O             1 RES     
    1471 O           39.2760    49.7930     5.2960 O             1 RES     
    1472 Si          41.8360    40.0350    14.6450 Si            1 RES     
    1473 Si          40.4220    22.1860     8.0240 Si            1 RES     
    1474 O           41.5440    30.2860     5.8490 O             1 RES     
    1475 Si          15.1180    23.4980     5.5180 Si            1 RES     
    1476 OS          31.2930    29.1530    15.5050 OS            1 RES     
    1477 O           37.2250    44.6220     8.1630 O             1 RES     
    1478 Si          37.4620    29.9450     6.6480 Si            1 RES     
    1479 OS           2.4090    45.0060    14.6690 OS            1 RES     
    1480 O           28.2940     2.3970     9.6980 O             1 RES     
    1481 Si          49.9060    16.3460     2.8790 Si            1 RES     
    1482 Si          49.7400    49.0190    13.2010 Si            1 RES     
    1483 O            2.1370    21.5170    12.1680 O             1 RES     
    1484 O            2.7220    39.5190    13.6440 O             1 RES     
    1485 Si          23.4490    48.7390    13.0610 Si            1 RES     
    1486 O           43.6060    34.1830    10.4770 O             1 RES     
    1487 Si          40.0440    22.8680     2.7750 Si            1 RES     
    1488 Si          30.3540    49.4740    11.0060 Si            1 RES     
    1489 O           10.4660    28.0500     3.3230 O             1 RES     
    1490 O           43.5030    29.4090     4.0760 O             1 RES     
    1491 O           12.3350    34.3870    10.9070 O             1 RES     
    1492 Si          30.2830    35.4870    10.0540 Si            1 RES     
    1493 O            1.5180     7.7760    10.8100 O             1 RES     
    1494 O           13.9350    48.6380    12.4890 O             1 RES     
    1495 O           11.8470    15.4370     5.8870 O             1 RES     
    1496 Si          36.3330    41.9210    10.7280 Si            1 RES     
    1497 Si          35.4250    49.3560     9.7630 Si            1 RES     
    1498 O           20.1260    10.3950     6.6900 O             1 RES     
    1499 O           42.1540     3.4420    10.9540 O             1 RES     
    1500 O           48.7590     4.2680    13.4230 O             1 RES     
    1501 O           34.3070    45.7400    11.1810 O             1 RES     
    1502 Si          28.9580    19.7090    12.6810 Si            1 RES     
    1503 Si           6.1900     2.5090    13.7400 Si            1 RES     
    1504 O           13.5450     2.5430     3.3690 O             1 RES     
    1505 Si          10.8420    26.5980     2.8430 Si            1 RES     
    1506 Si          20.2770    23.7320     5.6520 Si            1 RES     
    1507 Si          14.4350    38.4700     8.2500 Si            1 RES     
    1508 O           14.3810    38.4590    11.4540 O             1 RES     
    1509 Si          40.9010     7.9910    12.3730 Si            1 RES     
    1510 Si          19.8480     9.1710    14.5010 Si            1 RES     
    1511 Si           4.0140    12.4090     2.8490 Si            1 RES     
    1512 O           46.4900     5.3760     6.6270 O             1 RES     
    1513 Si          23.8000    24.7180    13.9410 Si            1 RES     
    1514 O           43.7220     5.6280     2.8890 O             1 RES     
    1515 O            9.7740     8.0690    12.8280 O             1 RES     
    1516 O           11.2780    22.8880     6.1010 O             1 RES     
    1517 Si          34.9060    19.1140     7.6960 Si            1 RES     
    1518 Si          20.9400    21.1020    13.9370 Si            1 RES     
    1519 O           14.3030     7.0030     3.5270 O             1 RES     
    1520 O            7.6360     4.7540     3.4860 O             1 RES     
    1521 O            1.1770    36.5940     7.9670 O             1 RES     
    1522 O           11.1080    39.5610    13.4330 O             1 RES     
    1523 Si          41.8900    36.6090     5.6030 Si            1 RES     
    1524 Si           8.3270    24.6850    10.8860 Si            1 RES     
    1525 O           46.1650    30.2530    12.9010 O             1 RES     
    1526 Si          48.5580    37.0190     4.7550 Si            1 RES     
    1527 O           18.0280    24.1480     2.7820 O             1 RES     
    1528 O           38.2120    40.3700     3.1680 O             1 RES     
    1529 O           13.2290    18.9340     4.1960 O             1 RES     
    1530 Si          46.3700    21.4260    12.7990 Si            1 RES     
    1531 Si           2.5850    16.6810    13.9840 Si            1 RES     
    1532 O            1.5240    42.1600     5.3490 O             1 RES     
    1533 O           34.2080    41.4020     2.9950 O             1 RES     
    1534 O            9.9340    30.2440     7.3410 O             1 RES     
    1535 O            2.0630    15.5610     2.9380 O             1 RES     
    1536 Si          27.0240    28.3330     8.6310 Si            1 RES     
    1537 O           38.5380    40.3870    12.5310 O             1 RES     
    1538 O           35.8430     5.7330    11.5410 O             1 RES     
    1539 O           27.5350     2.5990     5.9240 O             1 RES     
    1540 Si          43.6470     6.3850     4.3100 Si            1 RES     
    1541 O           42.4490    45.0810     5.6010 O             1 RES     
    1542 OS          32.9010    10.6860    15.7000 OS            1 RES     
    1543 O           38.6840    34.5900     7.1850 O             1 RES     
    1544 Si          43.7680    26.7680     6.7440 Si            1 RES     
    1545 OS          20.0360    34.2170    15.6750 OS            1 RES     
    1546 Si          42.4550    31.3330    13.0540 Si            1 RES     
    1547 O            4.9090    17.5310    10.4690 O             1 RES     
    1548 O           28.7750     5.2600     1.7050 O             1 RES     
    1549 Si          31.4390    21.9590     5.0050 Si            1 RES     
    1550 Si          21.4930    10.7350     7.5580 Si            1 RES     
    1551 O           13.9710     6.4620     5.8890 O             1 RES     
    1552 O           33.0330    13.1450     8.0570 O             1 RES     
    1553 Si          34.9240    33.4730     4.7240 Si            1 RES     
    1554 O           17.3600    41.1060    13.5630 O             1 RES     
    1555 O           26.3210    32.7020    13.5690 O             1 RES     
    1556 Si          31.5440    41.4570    12.4750 Si            1 RES     
    1557 O           29.3740    43.0310     2.4190 O             1 RES     
    1558 O           25.4890    13.7300    12.0520 O             1 RES     
    1559 Si          41.1940    25.4280     5.6740 Si            1 RES     
    1560 OS          38.8210     8.9780    15.0080 OS            1 RES     
    1561 Si          25.0190    33.6200     4.5810 Si            1 RES     
    1562 OS          23.1240    10.3070    15.9810 OS            1 RES     
    1563 O           25.8520    37.3180     4.9610 O             1 RES     
    1564 O           26.2680    22.5560     2.5550 O             1 RES     
    1565 O           33.7020     3.5210     8.8710 O             1 RES     
    1566 Si          49.5320    36.2110     7.5480 Si            1 RES     
    1567 O            7.9020    12.8950     5.8120 O             1 RES     
    1568 Si          32.6620    21.5750    11.0900 Si            1 RES     
    1569 Si          41.8410    37.7970     9.8630 Si            1 RES     
    1570 O           24.8970    38.6820     9.4090 O             1 RES     
    1571 O           19.4320    30.9940     8.6450 O             1 RES     
    1572 O           23.0340     6.4600    10.7360 O             1 RES     
    1573 Si           6.1230    21.0220     6.0700 Si            1 RES     
    1574 O           26.2580     7.8970     4.8800 O             1 RES     
    1575 O           24.7020    27.8820     4.0000 O             1 RES     
    1576 O            6.7870    43.4910    11.0880 O             1 RES     
    1577 O            4.7200    26.2960     6.7230 O             1 RES     
    1578 O           37.7030    28.5370     7.3720 O             1 RES     
    1579 O           34.9560    33.9470    11.0150 O             1 RES     
    1580 O           14.4000    21.2030    10.7780 O             1 RES     
    1581 O           17.2170    24.9120    13.6390 O             1 RES     
    1582 O            4.4340    46.6510     3.6400 O             1 RES     
    1583 O           30.7400    41.4030     3.7310 O             1 RES     
    1584 O            4.3840    13.3880    11.0640 O             1 RES     
    1585 O           22.1030    11.6210    13.7130 O             1 RES     
    1586 Si          31.4340    47.1230     9.0250 Si            1 RES     
    1587 O           36.8030    42.6740    12.0850 O             1 RES     
    1588 Si          22.1270    35.1590     9.6950 Si            1 RES     
    1589 O            3.8970     7.1550    14.0880 O             1 RES     
    1590 Si           4.3300    41.3140     8.1820 Si            1 RES     
    1591 Si          10.1830    35.9490    12.9900 Si            1 RES     
    1592 O           40.7490    28.5730    10.2950 O             1 RES     
    1593 O           32.6930    40.5850     4.9870 O             1 RES     
    1594 O           31.9860     3.9110     4.1460 O             1 RES     
    1595 O           45.5510     9.8530     8.1410 O             1 RES     
    1596 Si          30.2600    26.5190     5.2240 Si            1 RES     
    1597 Si          30.8330    16.8930    12.4020 Si            1 RES     
    1598 Si          33.1600    28.3150     9.5480 Si            1 RES     
    1599 O           44.0770    47.9320    12.2840 O             1 RES     
    1600 O           47.5480    38.0060     5.6180 O             1 RES     
    1601 Si          37.6450    27.2860     8.3550 Si            1 RES     
    1602 O           27.5640    24.5850    13.4620 O             1 RES     
    1603 Si          17.1250    18.3300    13.4100 Si            1 RES     
    1604 O            7.1940    24.1080     3.5390 O             1 RES     
    1605 Si          16.4750     0.4530     5.0370 Si            1 RES     
    1606 O           19.0150    33.9640    12.9490 O             1 RES     
    1607 O           48.2660    28.9640    13.3060 O             1 RES     
    1608 Si          13.7360    46.8480     4.7960 Si            1 RES     
    1609 O           45.7160     3.1720     7.7260 O             1 RES     
    1610 O           47.2460    43.8840     6.4930 O             1 RES     
    1611 Si          22.0170    45.0380    14.2880 Si            1 RES     
    1612 O           33.8920     7.0090    12.1530 O             1 RES     
    1613 Si          39.0750     5.0900     3.8950 Si            1 RES     
    1614 O            7.5480    21.7370     2.2120 O             1 RES     
    1615 Si           8.7090    29.5450    12.8640 Si            1 RES     
    1616 O           23.3460    33.7330    14.3400 O             1 RES     
    1617 O           38.7150    11.9880     2.8450 O             1 RES     
    1618 O           23.8410    10.0350    13.5690 O             1 RES     
    1619 O           17.3960    45.5620     7.7220 O             1 RES     
    1620 Si          25.4570     0.0150     8.9280 Si            1 RES     
    1621 O           26.8410    31.3830    11.3970 O             1 RES     
    1622 Si           6.6870    28.7520     8.6050 Si            1 RES     
    1623 OS          43.8080    36.4830    16.0540 OS            1 RES     
    1624 O           22.9350     8.4130     3.4420 O             1 RES     
    1625 O           39.6580    23.4910     8.2180 O             1 RES     
    1626 O           40.5220    13.4140     7.5850 O             1 RES     
    1627 O           12.5910    40.7200     5.2870 O             1 RES     
    1628 O           29.9960    21.1650    13.4540 O             1 RES     
    1629 Si          41.0860    12.8460     6.2010 Si            1 RES     
    1630 Si          16.5360    42.3980     6.8450 Si            1 RES     
    1631 O            5.2850    29.5070     8.5800 O             1 RES     
    1632 Si          45.8050    26.2980     2.8180 Si            1 RES     
    1633 O           13.0470    46.5060     7.9250 O             1 RES     
    1634 O            0.7180    49.8240     8.9760 O             1 RES     
    1635 OS          36.5360    15.8240    14.3420 OS            1 RES     
    1636 O           38.6230    13.9870    13.4050 O             1 RES     
    1637 Si          11.1980    35.2150    10.2120 Si            1 RES     
    1638 O           16.1250    27.2630     7.1250 O             1 RES     
    1639 O           42.0090     8.9310     6.7160 O             1 RES     
    1640 O           29.4600     7.4260     7.0500 O             1 RES     
    1641 Si          24.4940    16.1220     5.1530 Si            1 RES     
    1642 O           14.2950    24.3120     4.4240 O             1 RES     
    1643 Si          38.8680    40.4150    14.1390 Si            1 RES     
    1644 O           29.1570    32.0700     6.3030 O             1 RES     
    1645 O           16.2070    42.0650     2.8460 O             1 RES     
    1646 OS          19.4590    10.4200    15.3960 OS            1 RES     
    1647 Si           9.1930     2.1070     6.1930 Si            1 RES     
    1648 O           22.3780    10.9030     3.1270 O             1 RES     
    1649 O           29.5450    27.8690     5.5900 O             1 RES     
    1650 Si           9.7130    35.8030     6.0890 Si            1 RES     
    1651 O           16.2530    39.6080     2.5560 O             1 RES     
    1652 O           36.1380    34.2730     4.0100 O             1 RES     
    1653 O           41.4980     4.0980     6.5750 O             1 RES     
    1654 O           44.7810    41.7280     3.7870 O             1 RES     
    1655 Si          21.5530    37.3940     5.0980 Si            1 RES     
    1656 O           15.2540    46.7190     5.0130 O             1 RES     
    1657 Si          48.3050     8.8110     5.0710 Si            1 RES     
    1658 Si          19.3380    36.4260     9.9850 Si            1 RES     
    1659 O            6.0910    41.7390    14.4270 O             1 RES     
    1660 O           47.7060     8.7760     8.5610 O             1 RES     
    1661 O           16.0610     6.3310     7.6540 O             1 RES     
    1662 O           40.2300    36.4090    13.8110 O             1 RES     
    1663 O           48.3560    10.4680     2.3570 O             1 RES     
    1664 Si           7.5970    15.8860     3.3550 Si            1 RES     
    1665 Si          33.3320    42.4600    10.1280 Si            1 RES     
    1666 Si          46.0100    36.0040     3.3990 Si            1 RES     
    1667 O           46.9380    40.5590     4.9240 O             1 RES     
    1668 Si          14.4050    18.2450     4.9420 Si            1 RES     
    1669 O           46.1040    11.4080     5.6420 O             1 RES     
    1670 O           27.3830     8.8200     6.7370 O             1 RES     
    1671 O           31.8700    15.0560     3.2500 O             1 RES     
    1672 Si          15.9070    10.0890     6.7220 Si            1 RES     
    1673 O           10.8390    15.5770    10.8400 O             1 RES     
    1674 Si           3.8790    23.8550     9.3030 Si            1 RES     
    1675 O           10.9570    21.5610     8.4690 O             1 RES     
    1676 Si           7.0870    27.4220    11.3940 Si            1 RES     
    1677 O           42.1170    20.9600    11.0440 O             1 RES     
    1678 O           14.6650    28.9330    13.6520 O             1 RES     
    1679 Si          15.6640    29.9960    13.2650 Si            1 RES     
    1680 O           41.2090     6.6220     7.2350 O             1 RES     
    1681 Si           3.2300    16.7320     5.8630 Si            1 RES     
    1682 O           25.0490    41.8660     6.4780 O             1 RES     
    1683 Si           1.2730    44.7730    10.5840 Si            1 RES     
    1684 O            2.6120    46.4420     7.0790 O             1 RES     
    1685 O           13.6390    49.8840    10.2120 O             1 RES     
    1686 O           30.6700    34.1810     9.2810 O             1 RES     
    1687 OS           3.4830     3.6420    14.6700 OS            1 RES     
    1688 Si          41.1270    42.6480     8.1450 Si            1 RES     
    1689 O           40.0150     6.7220    12.7820 O             1 RES     
    1690 O           46.5220    14.8410    13.6800 O             1 RES     
    1691 O           19.5030    37.4470    11.1780 O             1 RES     
    1692 O           40.1420    18.5980     7.4890 O             1 RES     
    1693 O            6.4810    45.2430    12.8770 O             1 RES     
    1694 O            3.6000    44.9390     4.7370 O             1 RES     
    1695 O           40.1310    32.9500    10.1810 O             1 RES     
    1696 O           44.1860    49.7900    14.2140 O             1 RES     
    1697 Si          26.6890    16.7210     3.0580 Si            1 RES     
    1698 O           23.2980    16.4810    11.5780 O             1 RES     
    1699 O            7.4210    33.3580     4.5400 O             1 RES     
    1700 Si          44.8280    48.4210    13.6520 Si            1 RES     
    1701 O           47.3600    32.4420     2.6270 O             1 RES     
    1702 O           38.3920    45.2230     3.4960 O             1 RES     
    1703 O            2.3880    18.0540     6.4230 O             1 RES     
    1704 O           25.3700    36.4550     2.4690 O             1 RES     
    1705 OS          22.7450    30.9570    14.5870 OS            1 RES     
    1706 O           33.4470    13.1420     3.1830 O             1 RES     
    1707 O           24.0410    23.1650    13.5520 O             1 RES     
    1708 OS          46.7590    44.2960    14.1190 OS            1 RES     
    1709 O           36.7380    34.8560     9.1230 O             1 RES     
    1710 O           43.6660    35.3340     8.4330 O             1 RES     
    1711 O           39.8860     2.2040    10.2160 O             1 RES     
    1712 O           49.6020    12.7850    13.2680 O             1 RES     
    1713 O           11.1720    18.9820     5.3790 O             1 RES     
    1714 O           14.0480     9.3350     3.0620 O             1 RES     
    1715 O           35.8400    18.1980    13.9900 O             1 RES     
    1716 O           45.4570    30.3800     2.5570 O             1 RES     
    1717 O           34.2480    35.0790     8.7640 O             1 RES     
    1718 OS           3.5890    41.3540    15.1300 OS            1 RES     
    1719 O           14.3800    26.3200    10.8220 O             1 RES     
    1720 OS          48.5540    26.5690    14.4960 OS            1 RES     
    1721 Si           5.3480    49.4170    12.7330 Si            1 RES     
    1722 O           34.2900     4.8140    13.7120 O             1 RES     
    1723 O           41.5300    11.3990     6.3670 O             1 RES     
    1724 Si          11.4050    22.6560     4.4670 Si            1 RES     
    1725 OS          38.6380    32.5650    14.3420 OS            1 RES     
    1726 OS          40.7220    14.0150    14.4760 OS            1 RES     
    1727 Si           5.4440    46.3220    12.6150 Si            1 RES     
    1728 O           47.9650     3.8760     8.0230 O             1 RES     
    1729 O           22.6100    24.2770     9.1200 O             1 RES     
    1730 O            8.7410     3.2920     5.2770 O             1 RES     
    1731 O           43.1120    13.3500    10.8740 O             1 RES     
    1732 O           40.3440    48.4660     7.4730 O             1 RES     
    1733 O            3.4810     4.3130    11.9250 O             1 RES     
    1734 O           15.4450    37.0720    13.3770 O             1 RES     
    1735 O           30.5520    32.6320    11.0970 O             1 RES     
    1736 O           14.9040    13.0700     7.7000 O             1 RES     
    1737 Si          43.4640    34.5120     4.1050 Si            1 RES     
    1738 O           37.2750    41.3190     6.3480 O             1 RES     
    1739 O           16.5790     8.1120     3.7590 O             1 RES     
    1740 O           44.9030    17.5790     9.8250 O             1 RES     
    1741 O           42.4170    23.6620    11.1840 O             1 RES     
    1742 Si          11.8210    19.6120     4.0960 Si            1 RES     
    1743 O            4.2290     4.2180     9.5200 O             1 RES     
    1744 O           11.9240     3.5670     7.9060 O             1 RES     
    1745 Si          23.2640    28.3340     4.5650 Si            1 RES     
    1746 Si          10.6550    15.6260     6.9070 Si            1 RES     
    1747 Si          16.6240    47.4700     4.8540 Si            1 RES     
    1748 O           42.4230    43.5150    11.6360 O             1 RES     
    1749 O           44.6300    13.0840     4.7050 O             1 RES     
    1750 O           24.8870    23.7760     8.7800 O             1 RES     
    1751 Si          44.1340    14.4970    10.5390 Si            1 RES     
    1752 O            1.7890    11.3740     9.7400 O             1 RES     
    1753 Si          36.3550    48.1240     7.1680 Si            1 RES     
    1754 O           10.2310    49.0210     4.5630 O             1 RES     
    1755 O           28.3610    24.1750     9.0730 O             1 RES     
    1756 O            8.0270    42.6550    15.9740 O             1 RES     
    1757 O           20.6590    43.6390     4.2780 O             1 RES     
    1758 Si          19.3750    41.1540     7.3020 Si            1 RES     
    1759 O           30.9560    11.5940     8.6360 O             1 RES     
    1760 O           18.8340     9.1030    13.2000 O             1 RES     
    1761 O           18.5960    17.9340    13.0090 O             1 RES     
    1762 O           46.4730     1.5150     3.5410 O             1 RES     
    1763 Si          18.1270    13.5640    13.2330 Si            1 RES     
    1764 O           12.2390    25.8070     3.0760 O             1 RES     
    1765 O           34.3740    21.7230     2.4900 O             1 RES     
    1766 O            7.1170    49.6020     8.2970 O             1 RES     
    1767 OS          11.0990    15.4880    15.8520 OS            1 RES     
    1768 Si          47.6450    44.0410    12.8520 Si            1 RES     
    1769 O            7.2630    40.2660     5.4760 O             1 RES     
    1770 Si           5.9150    39.6130     6.0160 Si            1 RES     
    1771 O            3.6420    48.2090     1.7190 O             1 RES     
    1772 Si           9.3260    30.2780     8.7720 Si            1 RES     
    1773 O           21.8550    12.2470     7.6560 O             1 RES     
    1774 Si          32.0220    45.5090     3.4310 Si            1 RES     
    1775 Si          26.3280    36.2830     3.8650 Si            1 RES     
    1776 Si          29.2960    49.2110     4.6370 Si            1 RES     
    1777 Si           9.8470    49.8200    11.0250 Si            1 RES     
    1778 Si           9.5920     8.9400    14.1330 Si            1 RES     
    1779 O           23.2350    37.5940     5.5630 O             1 RES     
    1780 O            4.4610     4.4630     6.6550 O             1 RES     
    1781 O           37.6840     4.5540     4.2990 O             1 RES     
    1782 O            8.1540    43.7040     6.2390 O             1 RES     
    1783 O           16.5850     3.8740     7.1990 O             1 RES     
    1784 Si          43.4070    14.0150     4.5790 Si            1 RES     
    1785 O           29.2980    38.8270     7.6790 O             1 RES     
    1786 O           29.3870    21.7350     9.2020 O             1 RES     
    1787 Si          19.1950    49.8120     3.6240 Si            1 RES     
    1788 O           38.6720    38.0910    11.0390 O             1 RES     
    1789 Si          37.7770    35.5230     8.0530 Si            1 RES     
    1790 O            0.8420    23.7000    11.6950 O             1 RES     
    1791 Si          45.3090    46.5390     8.6930 Si            1 RES     
    1792 O           40.1670    32.8790     5.9980 O             1 RES     
    1793 O           49.4920    12.2080     4.3130 O             1 RES     
    1794 Si          43.2470    18.1450     6.8110 Si            1 RES     
    1795 O            1.2610    45.9670     4.7330 O             1 RES     
    1796 O           20.5560     6.5140    11.2540 O             1 RES     
    1797 Si          46.4700    21.9070     5.5860 Si            1 RES     
    1798 O           33.7270     4.7470    11.2180 O             1 RES     
    1799 O           48.7680    39.6940    10.5490 O             1 RES     
    1800 Si           3.4020     1.0840     6.7640 Si            1 RES     
    1801 O           21.3330     1.8710    11.3530 O             1 RES     
    1802 O           35.5060    11.1090     6.4490 O             1 RES     
    1803 O           26.7580     4.1720     8.6430 O             1 RES     
    1804 O           44.5140    28.1680    12.7980 O             1 RES     
    1805 Si           5.8150    23.1590    13.7230 Si            1 RES     
    1806 O           37.1250     4.6340     6.7400 O             1 RES     
    1807 Si          42.0090     8.7670     3.2600 Si            1 RES     
    1808 Si          46.1000    12.5440     4.5270 Si            1 RES     
    1809 O           49.5030    40.8540    12.6370 O             1 RES     
    1810 O           11.7300    11.3630    10.8470 O             1 RES     
    1811 Si          10.5060     3.9990     8.3070 Si            1 RES     
    1812 O           26.4340    42.8610    11.3620 O             1 RES     
    1813 Si          45.5280    18.4290    12.9920 Si            1 RES     
    1814 O           10.2690    20.2770    12.7150 O             1 RES     
    1815 O            4.0880     6.5780     5.0410 O             1 RES     
    1816 Si           4.7960    45.1350     3.8250 Si            1 RES     
    1817 Si          17.2500    36.7620     5.3500 Si            1 RES     
    1818 O           22.6580    35.0170     8.1920 O             1 RES     
    1819 O            4.7760    11.3850     3.7570 O             1 RES     
    1820 Si           2.1730    30.1660    10.6390 Si            1 RES     
    1821 O           29.6660     9.5910    12.2180 O             1 RES     
    1822 O            3.1690    11.5260     1.8630 O             1 RES     
    1823 Si           1.5830    19.4170     6.7290 Si            1 RES     
    1824 Si           4.1910    30.4610     4.9740 Si            1 RES     
    1825 O           18.7420    19.2920     3.6040 O             1 RES     
    1826 O           29.6860    44.8840    11.6080 O             1 RES     
    1827 Si          21.1900    42.2330     4.8640 Si            1 RES     
    1828 O           30.7800    20.5740     4.9990 O             1 RES     
    1829 O           19.1700    19.3410     6.1340 O             1 RES     
    1830 Si          21.9210     5.8130    11.6850 Si            1 RES     
    1831 O           19.2280    34.6030     2.8800 O             1 RES     
    1832 Si           4.1090     5.0000     5.1770 Si            1 RES     
    1833 O            6.3600    18.8940     8.8740 O             1 RES     
    1834 O            6.2940     0.6990     3.4020 O             1 RES     
    1835 O           15.1280     3.2530    11.2180 O             1 RES     
    1836 Si          24.5940    16.9940    10.8350 Si            1 RES     
    1837 Si          12.2190    47.6710     7.2280 Si            1 RES     
    1838 Si          49.2660    27.9520    14.1410 Si            1 RES     
    1839 O           37.6340    43.1750     4.6860 O             1 RES     
    1840 O           40.8040     9.0420    13.7160 O             1 RES     
    1841 Si          27.3070    45.2360     8.2250 Si            1 RES     
    1842 O           33.9980    22.9060     7.6760 O             1 RES     
    1843 O            7.2550    30.0260    13.2260 O             1 RES     
    1844 OS          45.0770    29.4240    15.0810 OS            1 RES     
    1845 O           45.1190    37.2770     3.0810 O             1 RES     
    1846 O            6.8140    47.4990     9.5180 O             1 RES     
    1847 O           14.2680    43.1000     4.5660 O             1 RES     
    1848 O           41.9410    38.7310    11.1050 O             1 RES     
    1849 O            5.3760    40.2880     7.4140 O             1 RES     
    1850 O           40.1690    43.8500     4.6990 O             1 RES     
    1851 O           27.7100    40.7150     6.5120 O             1 RES     
    1852 O           40.9140    41.0570     8.2180 O             1 RES     
    1853 OS          34.1110    39.3100    14.9850 OS            1 RES     
    1854 O           30.0460    40.2740     5.7160 O             1 RES     
    1855 O           39.6660    27.1110    12.0460 O             1 RES     
    1856 O           17.3190    47.0070     3.5200 O             1 RES     
    1857 Si          32.9580     4.0070    10.1090 Si            1 RES     
    1858 OS          10.9230     3.7840    14.3840 OS            1 RES     
    1859 Si          34.8320    34.0840    12.5900 Si            1 RES     
    1860 O            7.6280    43.2180    13.5850 O             1 RES     
    1861 Si          47.7210    26.6370     7.6180 Si            1 RES     
    1862 O           30.9160    26.5840     3.7620 O             1 RES     
    1863 O           23.9220    42.3280    12.3240 O             1 RES     
    1864 O           25.8880    40.5100    13.6960 O             1 RES     
    1865 O           36.9150    15.8830     8.6820 O             1 RES     
    1866 OS           6.4700    14.0980    14.5600 OS            1 RES     
    1867 O           21.1230    47.8380     9.4230 O             1 RES     
    1868 O           44.2260     1.4090     2.5910 O             1 RES     
    1869 O           21.3940    24.2170     4.6260 O             1 RES     
    1870 O           38.1040    25.3190    12.6240 O             1 RES     
    1871 Si          32.5640    11.8050     8.6730 Si            1 RES     
    1872 O           33.7820    18.0900     7.4940 O             1 RES     
    1873 O            9.2800    39.5730    11.9060 O             1 RES     
    1874 O            1.9720     1.2120     6.1930 O             1 RES     
    1875 O           46.1200    47.9080     8.9550 O             1 RES     
    1876 O           15.0400    45.0910     8.8960 O             1 RES     
    1877 O            5.1570    33.7200     3.2020 O             1 RES     
    1878 Si          43.0790    47.3120    11.1950 Si            1 RES     
    1879 OS          38.3240     2.4550    14.5480 OS            1 RES     
    1880 O           21.8820    18.2290     2.1210 O             1 RES     
    1881 O            9.7870    41.1050     4.7360 O             1 RES     
    1882 O            6.1870    10.7460     5.5900 O             1 RES     
    1883 O           34.0590    49.7060     8.3830 O             1 RES     
    1884 O           46.9490    42.9200     4.2110 O             1 RES     
    1885 O           40.5380    39.4770     3.5280 O             1 RES     
    1886 O           25.0980    48.5330     8.5770 O             1 RES     
    1887 Si          33.8420    45.4100     9.7360 Si            1 RES     
    1888 O            1.0700    29.6330     2.7850 O             1 RES     
    1889 O           31.7480    46.3360     4.7500 O             1 RES     
    1890 O           46.7180    43.3970    11.7750 O             1 RES     
    1891 O           45.9950    25.4950     4.1030 O             1 RES     
    1892 Si          24.4620    20.2280     4.2260 Si            1 RES     
    1893 O            1.2180    40.0580    10.7650 O             1 RES     
    1894 O           49.7400    19.9800    10.4620 O             1 RES     
    1895 O           36.5850     7.6310    10.1330 O             1 RES     
    1896 O           32.3760    49.8430     3.1810 O             1 RES     
    1897 O           28.6740    10.7080    14.1490 O             1 RES     
    1898 O           29.5430    49.3210    12.4220 O             1 RES     
    1899 Si          38.2170    48.4220    11.3390 Si            1 RES     
    1900 O           27.3500    36.5040    12.2680 O             1 RES     
    1901 O           21.5430    31.5880     9.9880 O             1 RES     
    1902 O           34.2360    27.1980    10.1070 O             1 RES     
    1903 Si          28.9930     5.7800     3.1930 Si            1 RES     
    1904 O           16.7080    12.7920     9.7260 O             1 RES     
    1905 Si          30.0820    44.3490    13.0340 Si            1 RES     
    1906 O            8.3120    28.2320    12.0050 O             1 RES     
    1907 Si          17.5100    25.8340    12.3960 Si            1 RES     
    1908 O           13.1120    45.4360     5.0930 O             1 RES     
    1909 O            8.6580    38.8890     7.8230 O             1 RES     
    1910 O           25.4570    30.2240     5.8030 O             1 RES     
    1911 O           15.4610    30.9980    12.0200 O             1 RES     
    1912 O           20.9830    17.0100    12.4260 O             1 RES     
    1913 O            2.5790    23.0990     5.9300 O             1 RES     
    1914 Si          23.6140    20.2550     7.2040 Si            1 RES     
    1915 O           12.8580    28.5260    10.3000 O             1 RES     
    1916 Si          49.4750    31.2930     5.8120 Si            1 RES     
    1917 O           30.2560     7.0160    13.1400 O             1 RES     
    1918 O            1.0510    42.4950     2.7780 O             1 RES     
    1919 O           47.2880    39.8280     7.4040 O             1 RES     
    1920 Si          18.5590    46.0310     6.8330 Si            1 RES     
    1921 Si          34.5940    12.1700     2.8700 Si            1 RES     
    1922 O            4.8720     2.7370    12.9050 O             1 RES     
    1923 Si          22.8780    32.3050    10.6540 Si            1 RES     
    1924 O           40.5280    15.8970     7.9670 O             1 RES     
    1925 O           49.8640    21.4210    12.6100 O             1 RES     
    1926 Si          42.2390     3.0160     7.4680 Si            1 RES     
    1927 O            3.7080    32.8340    13.4430 O             1 RES     
    1928 O            2.5300    34.7780    12.6110 O             1 RES     
    1929 Si           2.4450     7.5800    14.4700 Si            1 RES     
    1930 O           49.6160    16.5430    11.2260 O             1 RES     
    1931 Si          27.6710    25.6370    12.2540 Si            1 RES     
    1932 O            9.4760    25.8230     3.2250 O             1 RES     
    1933 Si          13.1140    47.5690    13.2110 Si            1 RES     
    1934 O           16.1200    18.1080    12.2320 O             1 RES     
    1935 OS          29.6160    49.4550    15.2350 OS            1 RES     
    1936 Si           2.5000    36.8800     8.8330 Si            1 RES     
    1937 O           10.4580    19.5140    10.2270 O             1 RES     
    1938 O           31.5910     0.4320    11.3760 O             1 RES     
    1939 O            6.2520     3.0190     2.5250 O             1 RES     
    1940 O           23.7620    20.4510     5.6460 O             1 RES     
    1941 O            6.4440    28.1370     2.6900 O             1 RES     
    1942 Si          32.9600    16.8100     7.8490 Si            1 RES     
    1943 O           45.8420    12.2230     2.9200 O             1 RES     
    1944 Si          27.7260    28.2960    13.6810 Si            1 RES     
    1945 Si          32.2490    34.8590     5.3880 Si            1 RES     
    1946 O           43.5730    19.3770     5.9410 O             1 RES     
    1947 O           41.4800    11.2340    10.4330 O             1 RES     
    1948 O           27.1300    19.9590    11.9050 O             1 RES     
    1949 O           43.1120     9.0960     2.1700 O             1 RES     
    1950 Si           6.3650    38.1370    13.4510 Si            1 RES     
    1951 O           15.5340    25.4820     8.9350 O             1 RES     
    1952 O           28.6790    23.3450     2.1370 O             1 RES     
    1953 O           44.5210    17.3100     6.5560 O             1 RES     
    1954 O           43.6050    30.4300    13.6700 O             1 RES     
    1955 O           13.6740    44.1950     7.0730 O             1 RES     
    1956 O           14.3730    14.0060    12.1490 O             1 RES     
    1957 O           15.2320    24.6720     6.5390 O             1 RES     
    1958 O           10.0290     5.5380     8.3100 O             1 RES     
    1959 Si          25.5300    22.6310     7.8570 Si            1 RES     
    1960 O            2.1790    47.9090     3.7720 O             1 RES     
    1961 Si          28.9950    23.7520     5.4270 Si            1 RES     
    1962 Si           3.1650    10.6790    10.1300 Si            1 RES     
    1963 O           16.2890    28.8230     5.1010 O             1 RES     
    1964 O           17.3520    32.1840     7.5460 O             1 RES     
    1965 Si          43.9500    35.9760    14.5880 Si            1 RES     
    1966 O           34.8070    39.4040     4.0380 O             1 RES     
    1967 Si          36.5260    42.5080     5.6500 Si            1 RES     
    1968 O           19.9540     6.7290     6.2850 O             1 RES     
    1969 O            4.6190    12.9200    13.5930 O             1 RES     
    1970 O            2.3390     4.1420     7.6210 O             1 RES     
    1971 O           41.9660    30.8780     9.8350 O             1 RES     
    1972 Si          35.8660    49.2400     2.9200 Si            1 RES     
    1973 O            8.7220    18.7280     5.6150 O             1 RES     
    1974 O           14.6250     3.0450    13.8430 O             1 RES     
    1975 Si          35.9630    37.4350     6.4760 Si            1 RES     
    1976 Si           5.4570    15.2780     7.5350 Si            1 RES     
    1977 O           27.9400    14.5790    12.6080 O             1 RES     
    1978 OS          26.5330     4.8940    15.5000 OS            1 RES     
    1979 Si          43.3240    41.8310     3.2860 Si            1 RES     
    1980 Si          43.4030    46.2690     6.1900 Si            1 RES     
    1981 Si          29.6460    11.3040     7.7860 Si            1 RES     
    1982 O           36.5260    14.3320    10.5830 O             1 RES     
    1983 O           36.0060    43.7990     6.4990 O             1 RES     
    1984 Si           8.0120    14.4310     6.0600 Si            1 RES     
    1985 Si           8.8960    23.5080    13.6690 Si            1 RES     
    1986 O           38.2490    18.3300     8.8490 O             1 RES     
    1987 O           43.7310    19.8350     3.3930 O             1 RES     
    1988 O           27.6680    35.9060     3.0870 O             1 RES     
    1989 O            0.4900    43.5340    10.0180 O             1 RES     
    1990 O           13.6420    35.4190     6.9260 O             1 RES     
    1991 O           12.7540    11.4440     2.6230 O             1 RES     
    1992 Si          12.9910    27.1330    10.9580 Si            1 RES     
    1993 Si          23.8630    45.8620    11.9930 Si            1 RES     
    1994 Si          25.8870     0.5160    13.8480 Si            1 RES     
    1995 O           22.2970    48.3590     5.3120 O             1 RES     
    1996 Si          25.9610     5.2320     7.8690 Si            1 RES     
    1997 O           24.2940     1.8930     2.7680 O             1 RES     
    1998 O           16.4760    37.7040     4.3180 O             1 RES     
    1999 O           22.5200    49.9330    12.4180 O             1 RES     
    2000 Si          37.4340    32.5980    13.1870 Si            1 RES     
    2001 O           38.9960     6.4630     3.1540 O             1 RES     
    2002 Si          10.7150    31.6810    12.0640 Si            1 RES     
    2003 O           34.5510    35.6090    12.8760 O             1 RES     
    2004 Si          40.2900    17.2020     6.6710 Si            1 RES     
    2005 O           44.9450    25.3230     1.8730 O             1 RES     
    2006 O           25.4540    16.6890     4.0590 O             1 RES     
    2007 O           21.2320    41.1290     3.7910 O             1 RES     
    2008 O           47.9910    20.1320     7.5240 O             1 RES     
    2009 O           28.9260     1.4310     7.6320 O             1 RES     
    2010 Si          24.1400     6.9550     9.6920 Si            1 RES     
    2011 Si          10.0460    45.8610    12.3140 Si            1 RES     
    2012 O           19.5920    46.6460     7.8140 O             1 RES     
    2013 O           49.2820    13.9790     6.4470 O             1 RES     
    2014 Si          32.7610    30.8370     8.0090 Si            1 RES     
    2015 O           36.0280    19.1090    11.6440 O             1 RES     
    2016 O           25.9280    36.2850     9.9660 O             1 RES     
    2017 O           16.9410     1.5030    13.9450 O             1 RES     
    2018 Si           8.0890     9.1650     3.4690 Si            1 RES     
    2019 O            7.4840    43.0870     8.6110 O             1 RES     
    2020 Si          20.1150    33.9210    14.1370 Si            1 RES     
    2021 O            1.1320    27.7500     4.4110 O             1 RES     
    2022 Si          41.8280    48.1740     7.9800 Si            1 RES     
    2023 Si          38.2600     9.3290     6.6120 Si            1 RES     
    2024 O           40.4440    45.0910    11.7210 O             1 RES     
    2025 O           22.1720    28.9880    12.0870 O             1 RES     
    2026 O           22.5850    42.3680     5.5940 O             1 RES     
    2027 O            6.3640     0.9860    13.3560 O             1 RES     
    2028 O           21.1010    18.6210     4.3820 O             1 RES     
    2029 OS          40.5240    10.4340    15.8200 OS            1 RES     
    2030 O           28.6020    25.5380    10.9880 O             1 RES     
    2031 Si          45.1290    16.0420     5.8950 Si            1 RES     
    2032 O           48.0560    45.4530    12.2910 O             1 RES     
    2033 O           14.1680    24.4350     1.8690 O             1 RES     
    2034 O           13.8490    13.9900     5.4690 O             1 RES     
    2035 Si          41.6930    22.5180     5.2840 Si            1 RES     
    2036 O            7.7250    10.1780     9.7690 O             1 RES     
    2037 O           15.1780    41.4640     6.7210 O             1 RES     
    2038 O            0.5540    24.3760     6.7230 O             1 RES     
    2039 Si          38.2510    39.6490    11.1770 Si            1 RES     
    2040 Si          16.6180    37.7820    14.0810 Si            1 RES     
    2041 Si           2.9550    34.2100    14.0020 Si            1 RES     
    2042 O           13.2470     4.9020     3.6700 O             1 RES     
    2043 OS          11.5390    20.6390    15.1320 OS            1 RES     
    2044 Si          17.6370    21.3620    13.0510 Si            1 RES     
    2045 O           37.0490     8.3670     5.3170 O             1 RES     
    2046 O           18.5340     9.5700     4.7320 O             1 RES     
    2047 O           28.1010     7.5450     8.9600 O             1 RES     
    2048 O            4.4450    49.1510     3.9220 O             1 RES     
    2049 Si          34.1500     0.2340     6.9910 Si            1 RES     
    2050 O           28.9690     0.5530     5.4100 O             1 RES     
    2051 O           25.2910    45.2430    11.4690 O             1 RES     
    2052 O           48.5810     0.0460    12.8100 O             1 RES     
    2053 O            9.1010    41.7060     7.7430 O             1 RES     
    2054 O           23.3950    15.5370    13.9790 O             1 RES     
    2055 OS          46.7240    33.2900    14.4010 OS            1 RES     
    2056 O           38.2860    19.0310    13.0940 O             1 RES     
    2057 O           48.7460    16.5420    13.5350 O             1 RES     
    2058 O            2.8580    31.2520    11.5010 O             1 RES     
    2059 O           28.9490    32.9340     4.0500 O             1 RES     
    2060 Si          46.1820    13.6870    12.6920 Si            1 RES     
    2061 O           22.4060    27.0210     4.5720 O             1 RES     
    2062 O           32.4200    22.4380     3.8130 O             1 RES     
    2063 Si          19.3320    37.9810     7.2560 Si            1 RES     
    2064 O           13.0730    33.9140    13.3170 O             1 RES     
    2065 O            1.1850    49.5760    12.8470 O             1 RES     
    2066 Si          23.2730    36.9670    11.8210 Si            1 RES     
    2067 OS           2.9850    17.9980    14.8750 OS            1 RES     
    2068 O           25.0460    37.2640     7.3890 O             1 RES     
    2069 O           14.9480    19.2350     6.0250 O             1 RES     
    2070 Si          47.2880    48.5670     9.7450 Si            1 RES     
    2071 O            4.8430    38.0640    13.1040 O             1 RES     
    2072 O           29.7890     4.3610    13.8270 O             1 RES     
    2073 Si          39.1580     5.4970    12.3780 Si            1 RES     
    2074 O            6.1050    35.7080     4.4190 O             1 RES     
    2075 O           36.5980     2.3970    12.3880 O             1 RES     
    2076 Si          15.4760    20.6070     6.7620 Si            1 RES     
    2077 O           14.5900    33.3570    11.3350 O             1 RES     
    2078 Si          17.0470     0.9500    12.4370 Si            1 RES     
    2079 O            2.3170     7.2640     8.3850 O             1 RES     
    2080 O            9.0200    36.3940     7.3610 O             1 RES     
    2081 O            0.4130    36.1710    11.9020 O             1 RES     
    2082 O            7.3160    17.2230    10.7510 O             1 RES     
    2083 OS          41.2620    38.5490    15.0810 OS            1 RES     
    2084 O           48.3180    49.4250     8.8890 O             1 RES     
    2085 Si          46.3050     7.2390    11.5810 Si            1 RES     
    2086 Si           0.9870    22.4530    12.7220 Si            1 RES     
    2087 O           26.4740    16.1000     1.6920 O             1 RES     
    2088 O           12.6550    43.2920    11.9990 O             1 RES     
    2089 O            8.1300     3.5870    11.1090 O             1 RES     
    2090 O           43.5260     5.4500    13.6310 O             1 RES     
    2091 O           12.0960     9.1050     6.9030 O             1 RES     
    2092 Si          34.7290    19.2200    10.7460 Si            1 RES     
    2093 O            9.8690    36.6850     4.6570 O             1 RES     
    2094 O            6.2950    49.5440    10.8970 O             1 RES     
    2095 O           41.9290    17.3280     6.3350 O             1 RES     
    2096 O            9.4350    46.6280     4.5100 O             1 RES     
    2097 O           40.4240     8.4670     2.8820 O             1 RES     
    2098 O           16.1310    39.2250    14.1870 O             1 RES     
    2099 Si          39.6220    19.8540    13.4610 Si            1 RES     
    2100 Si          26.2590     7.5200    11.9100 Si            1 RES     
    2101 O           32.8230    46.4750     9.3520 O             1 RES     
    2102 Si           6.6160    22.6860     3.5980 Si            1 RES     
    2103 O           27.6590    26.8770     8.9330 O             1 RES     
    2104 Si          15.6720    43.1520     3.8470 Si            1 RES     
    2105 O           44.8030    25.8370     6.1180 O             1 RES     
    2106 O           12.3800     0.3960     4.1410 O             1 RES     
@<TRIPOS>BOND
       1     1266     1744 1
       2     1009     1834 1
       3      182     1253 1
       4      318     1297 1
       5      818      291 1
       6     1681     1703 1
       7      842      563 1
       8        1      256 1
       9     1553     1652 1
      10      263      729 1
      11      542     1807 1
      12     1464     2053 1
      13      973     1546 1
      14      904     1996 1
      15      674     1184 1
      16     1893     1314 1
      17     1906     1615 1
      18     2040     2098 1
      19     1202      265 1
      20     2023      114 1
      21      520     2028 1
      22       29     1665 1
      23      993      609 1
      24      430     1520 1
      25      841       13 1
      26     1153     1922 1
      27      429      246 1
      28      755     1639 1
      29     1479      714 1
      30      255     1612 1
      31      941     1038 1
      32     1594      443 1
      33     1473       13 1
      34      816     1694 1
      35      273      885 1
      36     1526      567 1
      37      388      231 1
      38     1908     1608 1
      39      927     1327 1
      40      975      610 1
      41     1372      158 1
      42     1847     1290 1
      43     2071     1257 1
      44     1236      635 1
      45     1221      197 1
      46     1959     1750 1
      47      473      321 1
      48      141      592 1
      49       97      961 1
      50        4      886 1
      51     1315     1580 1
      52     1376      107 1
      53      802     1970 1
      54     1346     1563 1
      55     2077      882 1
      56      215      938 1
      57     1630     1363 1
      58      431     1806 1
      59     1205      282 1
      60      696      778 1
      61      430     1939 1
      62     1112      984 1
      63      747     1314 1
      64       94      265 1
      65     1591     1302 1
      66      505     1727 1
      67     1559     1246 1
      68     1497     1883 1
      69      422     1980 1
      70      151      291 1
      71      545      605 1
      72     1482      971 1
      73     1495     1746 1
      74      797     1778 1
      75     1709     1789 1
      76     1059     1801 1
      77      242      809 1
      78      995     1985 1
      79      343     2055 1
      80       25      157 1
      81     1224     2013 1
      82      614      328 1
      83      377      104 1
      84     1344      878 1
      85     1379     1007 1
      86      765      232 1
      87      757     1844 1
      88     1265     1099 1
      89     1249     1566 1
      90     1104     1163 1
      91     1548     1903 1
      92     1151     2078 1
      93      325      443 1
      94      794      928 1
      95      959      785 1
      96        2      891 1
      97     1208     1944 1
      98     1382     1024 1
      99     1992     1719 1
     100      507     1464 1
     101      629     1569 1
     102     1429      125 1
     103      864     1058 1
     104     1510      175 1
     105     1467      654 1
     106      833     1322 1
     107     1000     1662 1
     108     1802      960 1
     109      861       46 1
     110      575     1696 1
     111       26      127 1
     112      839     1462 1
     113      511      520 1
     114     1324     2085 1
     115     1147      519 1
     116     1668      168 1
     117     2095     1794 1
     118      554      688 1
     119      500      109 1
     120     1558     1245 1
     121     1098     2008 1
     122       81     1983 1
     123      874     2076 1
     124      248     1366 1
     125      227      710 1
     126     1472     1291 1
     127     1526     1249 1
     128     1205     1187 1
     129     1389     1135 1
     130      529      786 1
     131     1849     1770 1
     132      529     2037 1
     133      504     1553 1
     134     2078     2017 1
     135     1890     1768 1
     136     1162      670 1
     137      759     1182 1
     138      149     1068 1
     139      286     1842 1
     140     1492      723 1
     141      250      208 1
     142       77      568 1
     143     2004     1692 1
     144      368     1239 1
     145      801      314 1
     146     1096     1921 1
     147      916      586 1
     148     1405     1024 1
     149      732     1813 1
     150     1397      980 1
     151      503     1314 1
     152      999     1904 1
     153      354      566 1
     154      189     2015 1
     155      248      114 1
     156      218      789 1
     157     1018     1313 1
     158      243      296 1
     159      465     1917 1
     160      397     1314 1
     161      536     2049 1
     162      836     1011 1
     163     1981     1759 1
     164     1215      722 1
     165     1009      497 1
     166      220       72 1
     167     1271     1009 1
     168     1593      955 1
     169     1528     1396 1
     170     2063       62 1
     171      625     1476 1
     172      874     1315 1
     173     1590      503 1
     174      433     1509 1
     175     1335      771 1
     176     1576      131 1
     177      993       39 1
     178      389      160 1
     179     1123      523 1
     180      107      641 1
     181     1184      165 1
     182     2039     1361 1
     183      256     1455 1
     184     1018     1735 1
     185     2073      451 1
     186      371      881 1
     187     1218     1255 1
     188      615       90 1
     189     1197     1741 1
     190     1338     1803 1
     191     1780     1255 1
     192     1338     1141 1
     193      871     1747 1
     194     1727     1243 1
     195     1150       45 1
     196     1596      202 1
     197     1730      377 1
     198      525     1441 1
     199      272     1892 1
     200      863      786 1
     201     1051     1367 1
     202     1292     1035 1
     203     1120      638 1
     204      268     1751 1
     205     1537     2039 1
     206     1407      384 1
     207      726       43 1
     208      437      759 1
     209     1517      722 1
     210      396     1771 1
     211      276      570 1
     212     1641      378 1
     213     1414     1975 1
     214       34     1910 1
     215      335      734 1
     216     1660      953 1
     217      217     1380 1
     218     1194      321 1
     219     1819      641 1
     220     1499     1336 1
     221     1989     1683 1
     222     1336     1027 1
     223       23     1659 1
     224      468     1232 1
     225     1536     2103 1
     226       11     1994 1
     227     1114     1743 1
     228      585      306 1
     229     1334     1980 1
     230      870     1664 1
     231     1536     1139 1
     232     1770     1044 1
     233     1194      411 1
     234       26      606 1
     235      753      525 1
     236     1976      117 1
     237      711     1976 1
     238     1427      418 1
     239     2030     1931 1
     240     1826     1905 1
     241      273     1287 1
     242     1508      375 1
     243     1530      808 1
     244      625      330 1
     245     1789     1046 1
     246       44      772 1
     247     2093      772 1
     248      339        8 1
     249      703     1813 1
     250     1095     1390 1
     251      176       15 1
     252     1428     1418 1
     253     1827     1757 1
     254      425     1965 1
     255      757     1954 1
     256      179      187 1
     257     1091       94 1
     258      178     1629 1
     259      515     1134 1
     260       67     1884 1
     261      485      235 1
     262      573     2020 1
     263     1140        7 1
     264      888     1169 1
     265     1535      905 1
     266      267     1251 1
     267      279     1622 1
     268     1299      110 1
     269      898     1657 1
     270     1984      303 1
     271      941      648 1
     272     1293      953 1
     273     1351     1078 1
     274      356     1306 1
     275      704      370 1
     276     1344     2009 1
     277     1503     1922 1
     278      962      174 1
     279     1507      103 1
     280      430      819 1
     281      137      382 1
     282      512     1297 1
     283      853     1034 1
     284      413     1992 1
     285      849      597 1
     286     2075     1166 1
     287     1549     1252 1
     288     2066       51 1
     289     1518      564 1
     290     1832      645 1
     291      945      118 1
     292     1431      814 1
     293     1679      294 1
     294      734     1823 1
     295      685     1639 1
     296     1409     1021 1
     297      920     1547 1
     298      560     2030 1
     299     1892     1940 1
     300     1113      491 1
     301     1392      106 1
     302      525     1835 1
     303     1015     1740 1
     304      340     1747 1
     305      328     1900 1
     306      824     1282 1
     307     1506      595 1
     308     1357     1467 1
     309     1838     1607 1
     310     1914     1940 1
     311     1408     1149 1
     312      854      975 1
     313     1248      649 1
     314      843     2040 1
     315     1309      775 1
     316      992      603 1
     317      916      234 1
     318     1281     1830 1
     319     1897      600 1
     320      565     1568 1
     321     1336      262 1
     322     1415     1993 1
     323      699      863 1
     324      922     1468 1
     325      562     2019 1
     326      575      316 1
     327      239     1636 1
     328       78       50 1
     329     1146     1438 1
     330     1688      448 1
     331     1693      131 1
     332      486       64 1
     333     1530       47 1
     334     1273     2106 1
     335     2037     1630 1
     336      188     1905 1
     337     1489      676 1
     338      543     1110 1
     339      406     1583 1
     340     1852     1688 1
     341     1503      441 1
     342      902      782 1
     343     1360      113 1
     344     1198      953 1
     345       67     1610 1
     346     1783      300 1
     347     1355      111 1
     348      831     1919 1
     349      475     2088 1
     350     2062      453 1
     351     1448     1887 1
     352      911     1734 1
     353      426     1053 1
     354     1855     1288 1
     355     1393     1641 1
     356      539      769 1
     357     1436     1663 1
     358      575      586 1
     359     1157     2058 1
     360     1756     1950 1
     361        5     1252 1
     362       80       31 1
     363       81     1477 1
     364     1394     1859 1
     365     1160      408 1
     366      762      371 1
     367     1011     1100 1
     368      951      485 1
     369     1277     1518 1
     370     2056     2099 1
     371      851     1676 1
     372     1213     1665 1
     373      742     1671 1
     374       73      537 1
     375     1801     1301 1
     376     1832     1780 1
     377     1203      476 1
     378      220     1202 1
     379      652      206 1
     380      976     1996 1
     381     1452      493 1
     382     1377      661 1
     383      335      276 1
     384      434      612 1
     385     1529     1668 1
     386     1529     1742 1
     387       24      241 1
     388     1146     1684 1
     389     1333      264 1
     390      596      162 1
     391      513     1134 1
     392      999      610 1
     393       72      124 1
     394      389      822 1
     395      284     1644 1
     396      547      633 1
     397     1266     1040 1
     398     1023     1742 1
     399      790     1306 1
     400      622      593 1
     401     1695     1364 1
     402     1048      239 1
     403      314      290 1
     404      223     1719 1
     405      139     2099 1
     406      278     1876 1
     407      583     1792 1
     408      422     2022 1
     409      853      815 1
     410      920     2082 1
     411     1067      752 1
     412      155     1132 1
     413     1497     1433 1
     414     1206      393 1
     415     1672      639 1
     416      932      206 1
     417       95        6 1
     418     1275      401 1
     419       15     2021 1
     420       10      449 1
     421      910     1892 1
     422      178     1784 1
     423      412     1721 1
     424     1467      671 1
     425     1178     1570 1
     426     1265      482 1
     427      224     1658 1
     428      705      681 1
     429      481     1015 1
     430     1188     1925 1
     431     1439     1637 1
     432      559      118 1
     433      516     1972 1
     434      726       38 1
     435      941     1461 1
     436     1848     1569 1
     437      581     1705 1
     438     1506     1869 1
     439      707      797 1
     440     1354      844 1
     441     1107      122 1
     442      427       84 1
     443     1570      128 1
     444      329       60 1
     445     1817      890 1
     446      369     1605 1
     447      687      453 1
     448      720     1308 1
     449      223      506 1
     450     1524     1259 1
     451      833     1812 1
     452     1386     2085 1
     453     1676     1259 1
     454      928      200 1
     455      742     1201 1
     456     1889     1774 1
     457      665     1567 1
     458     1517      719 1
     459     1105     1046 1
     460      720      302 1
     461      425      343 1
     462     1006       26 1
     463      558      662 1
     464      869     1552 1
     465     1442     1961 1
     466      554      233 1
     467     1192     1926 1
     468      812     1163 1
     469      267       21 1
     470      888      964 1
     471      804     1179 1
     472      551       15 1
     473      103      121 1
     474      924      635 1
     475     1782      775 1
     476     1138     1017 1
     477      555      468 1
     478      958     1929 1
     479     1586     2101 1
     480      842      901 1
     481      615     1329 1
     482      352     1699 1
     483     1204      293 1
     484     2080     1650 1
     485     1475     1642 1
     486     1996     1803 1
     487      663     1561 1
     488      406     1854 1
     489     1157     1927 1
     490      675     1907 1
     491     1530      875 1
     492     1076     1713 1
     493     1784     1749 1
     494       70      568 1
     495      668     1858 1
     496     1737     1171 1
     497     1418      897 1
     498      687        5 1
     499      788      909 1
     500     1450     2092 1
     501      194     1681 1
     502     1879     1166 1
     503      926     1117 1
     504     1197     1185 1
     505     1423      973 1
     506      539     1772 1
     507     1087      675 1
     508      534     1811 1
     509     1429      954 1
     510      804     1055 1
     511       51     1178 1
     512      629      462 1
     513     1123     1674 1
     514     1761     1603 1
     515      793     1958 1
     516     1379     1753 1
     517      433     1358 1
     518       90      837 1
     519     2026     1827 1
     520      392     2100 1
     521     1453     1898 1
     522      454      304 1
     523     2102     1604 1
     524     1093      258 1
     525     1144     1049 1
     526     2050     1776 1
     527      766     1727 1
     528     1325     1810 1
     529     1590     1849 1
     530      848      575 1
     531      393      888 1
     532     1598      177 1
     533     1420     1799 1
     534      401     1126 1
     535      474     1441 1
     536      537      805 1
     537     1965       64 1
     538      796      155 1
     539      431     1120 1
     540      861     1374 1
     541     1081      237 1
     542     1456     2021 1
     543      138     1820 1
     544     1536     1305 1
     545     1491     1637 1
     546     1797      879 1
     547     1632      601 1
     548      348     1470 1
     549       41     1811 1
     550     1306     1938 1
     551      576      986 1
     552      858     1805 1
     553     1555      780 1
     554      391      827 1
     555      218     1542 1
     556      221     1237 1
     557       66     1583 1
     558      836       16 1
     559      686     1057 1
     560      702      948 1
     561     1595      195 1
     562      915     1709 1
     563     2012     1920 1
     564       86      566 1
     565      394      300 1
     566      614      408 1
     567      517     1511 1
     568     1358     1947 1
     569      245     1163 1
     570      546      718 1
     571     1487      626 1
     572      226     1597 1
     573     1268      938 1
     574     1215     1986 1
     575      905     1175 1
     576     2099     1173 1
     577      430      645 1
     578      360     1625 1
     579     2097     1807 1
     580     1387     1122 1
     581     1018      773 1
     582      311     1315 1
     583      512     1899 1
     584      813     1037 1
     585     1468      650 1
     586     1601      813 1
     587      189     1715 1
     588     1053       56 1
     589      591      199 1
     590      237     1948 1
     591      912     1250 1
     592      831     1287 1
     593      788     1900 1
     594      336     2042 1
     595      137     1977 1
     596     1216      728 1
     597     1544     1246 1
     598     1550     1180 1
     599      392      782 1
     600      700      281 1
     601      669     1670 1
     602     1274      450 1
     603     1092     1404 1
     604      320     1967 1
     605      682      456 1
     606     1701     1031 1
     607       99      440 1
     608     2061     1745 1
     609     1905     1304 1
     610      193     1981 1
     611     1478     1251 1
     612     1509      643 1
     613     2091      604 1
     614     1153     1687 1
     615      691     1697 1
     616     1278      570 1
     617     2032     1768 1
     618     1052      967 1
     619      419     1650 1
     620      184      578 1
     621      535     1027 1
     622      144     1256 1
     623     1487      180 1
     624      423      861 1
     625      361     1993 1
     626       76     1388 1
     627     2040       58 1
     628     1401      694 1
     629     1200      123 1
     630      787     1107 1
     631      390      514 1
     632      538     1000 1
     633     1114     1359 1
     634      724     1618 1
     635     1440     2088 1
     636      415     1318 1
     637       86       23 1
     638      597     2075 1
     639     1028      596 1
     640      168      607 1
     641      735      407 1
     642      808     1188 1
     643     1117      517 1
     644      871     1920 1
     645     1430      772 1
     646     1080      999 1
     647      781     1615 1
     648     1140      677 1
     649      500       61 1
     650     1319      358 1
     651     1119     1605 1
     652     1696     1700 1
     653      274     2057 1
     654      842     1963 1
     655     1311      199 1
     656     2073     1689 1
     657      254     2096 1
     658     1344     2050 1
     659     1595      579 1
     660     1525      327 1
     661     1075      670 1
     662      935      730 1
     663     1495      607 1
     664      225      968 1
     665     1588     1065 1
     666      223       53 1
     667     1111      207 1
     668     1052     1916 1
     669      759      464 1
     670      743     1049 1
     671      929      864 1
     672     2040     1734 1
     673      698     1304 1
     674     1116     1518 1
     675      345      475 1
     676      215     1964 1
     677      269      989 1
     678      719     2092 1
     679     1264      140 1
     680      364     1616 1
     681       67       38 1
     682      544     1453 1
     683       24     1103 1
     684       71     1611 1
     685      869     1054 1
     686       72     1886 1
     687      915       21 1
     688      738     1997 1
     689     1114     1733 1
     690     1411      124 1
     691     1107     1866 1
     692     1129      767 1
     693      668      212 1
     694      467     2072 1
     695     1135     1737 1
     696      925      366 1
     697     1910     1300 1
     698      710     1030 1
     699     1561     1029 1
     700      916      386 1
     701     1317     1936 1
     702       72       17 1
     703      796     1818 1
     704      633      118 1
     705      520     1829 1
     706      984      658 1
     707     1693     1727 1
     708     1984     1567 1
     709      427     1477 1
     710     1112      284 1
     711     1576      635 1
     712      237      458 1
     713      908     1022 1
     714      845     1209 1
     715     1530      977 1
     716      182     1446 1
     717      724     1585 1
     718      677     1622 1
     719     1540      158 1
     720     1335       42 1
     721     1532      726 1
     722      660     1312 1
     723     1103      968 1
     724      798     2049 1
     725      427      637 1
     726     1101     1746 1
     727      833     2051 1
     728      267     1226 1
     729      975      280 1
     730     1215     1865 1
     731      556      529 1
     732     1678     1679 1
     733      793      135 1
     734     1766      891 1
     735      685     1680 1
     736     1820     1033 1
     737      628      306 1
     738      357      598 1
     739      217     1861 1
     740      149     1682 1
     741     1111      903 1
     742      349     2004 1
     743      535     1609 1
     744     1802      106 1
     745      845     1837 1
     746       36     1981 1
     747     1421     1172 1
     748     1799     1172 1
     749     1317      969 1
     750     1398     2012 1
     751      184     1364 1
     752      615      783 1
     753      765      280 1
     754      807     1989 1
     755       93      471 1
     756     1399      211 1
     757     1078     1707 1
     758      145     1606 1
     759     1859      774 1
     760       66      203 1
     761     1124     1026 1
     762      996     1310 1
     763      796      283 1
     764       10     1617 1
     765       32     1037 1
     766     1174      967 1
     767     1343      113 1
     768     1269      793 1
     769     1464     1909 1
     770     1560      455 1
     771     2018     1176 1
     772     1878      647 1
     773      756     1711 1
     774       66      105 1
     775     1275      185 1
     776      113      611 1
     777        1     1487 1
     778     1522      603 1
     779      557      778 1
     780     1775      171 1
     781     1229      963 1
     782     1104     1657 1
     783     1426     1777 1
     784     1097      174 1
     785      311     1285 1
     786       46      966 1
     787     1434     1166 1
     788     1979     1654 1
     789      541       10 1
     790       70     1338 1
     791     1152     1785 1
     792     1003     1786 1
     793     1776      112 1
     794     1923      634 1
     795      795      624 1
     796      993     1930 1
     797      623     1698 1
     798      270     1981 1
     799     1745     1575 1
     800     1234     1242 1
     801      988     1758 1
     802     1092     1328 1
     803      800      772 1
     804      683      651 1
     805     1047      654 1
     806     1085      810 1
     807      348     1367 1
     808     1094     1301 1
     809      681     1735 1
     810      558       54 1
     811      493     1790 1
     812      957      160 1
     813     1219      978 1
     814     1748      209 1
     815      450      197 1
     816      194     1976 1
     817     1404     1672 1
     818      350     1506 1
     819      183      630 1
     820     1216     1305 1
     821      989     1835 1
     822     1342     2073 1
     823      747     1257 1
     824      531     2044 1
     825     1396      956 1
     826     1107     1296 1
     827      518     1824 1
     828      996      490 1
     829     1325     1220 1
     830     1906     1676 1
     831     1368     1950 1
     832     1489     1505 1
     833     1126     1454 1
     834     1341     1787 1
     835      653      583 1
     836     1381     2011 1
     837     1870      289 1
     838     1449      304 1
     839     2020     1303 1
     840     1420     1893 1
     841     2001     1613 1
     842     1599     1878 1
     843      320      955 1
     844     1460      313 1
     845     1797       49 1
     846       78     1624 1
     847      762      498 1
     848     1217     1821 1
     849      830      161 1
     850      337     1839 1
     851      138      100 1
     852     1378     1816 1
     853      193      669 1
     854      336     1519 1
     855     1327      608 1
     856     1190     1846 1
     857     1485      361 1
     858     1967     1839 1
     859     1444      291 1
     860      817     1285 1
     861     1784      108 1
     862      859      355 1
     863     1331     1960 1
     864     1526      885 1
     865     1064      600 1
     866     1390      204 1
     867        3     1637 1
     868     1280     1588 1
     869     1815     1832 1
     870      804      325 1
     871     1084      522 1
     872      226     1502 1
     873      829      939 1
     874     1115     1372 1
     875     1515      666 1
     876      617     1031 1
     877     1069      343 1
     878      792      657 1
     879     1593      406 1
     880     1256      288 1
     881      263     1165 1
     882      177     1248 1
     883      134     1933 1
     884     1019     1903 1
     885     1664      303 1
     886     2045     2023 1
     887     1339      445 1
     888      787      495 1
     889      564     2044 1
     890     1281     1059 1
     891      519      292 1
     892      435      259 1
     893     1414     1789 1
     894       94     1757 1
     895      824      196 1
     896      740     1488 1
     897     1915      206 1
     898     1002     1688 1
     899      693      101 1
     900     1524      589 1
     901      728      636 1
     902      936     1785 1
     903     1237      960 1
     904      863     1998 1
     905      878     1042 1
     906     1192       45 1
     907     1319     1133 1
     908     1482     2052 1
     909     1525      757 1
     910      837     1060 1
     911     1383     1961 1
     912     1122     1956 1
     913     1008      495 1
     914      558     1661 1
     915      850      623 1
     916      907     1962 1
     917     1056     1456 1
     918     1272      886 1
     919     1085     1129 1
     920      451     1166 1
     921      274     1261 1
     922     1334     1791 1
     923     1148      960 1
     924      310     1736 1
     925     1493     1256 1
     926      357     1566 1
     927      466     1035 1
     928     1864       48 1
     929      793     1347 1
     930     1161      721 1
     931      520     1825 1
     932      587     1300 1
     933     1007     1732 1
     934      192     2025 1
     935      592     1229 1
     936     1025     1603 1
     937     1416     1547 1
     938      930      242 1
     939      148      172 1
     940     1188     1894 1
     941     1118      987 1
     942     1276     1488 1
     943     1072      947 1
     944      750      985 1
     945     1134      119 1
     946     1070     1635 1
     947     1197      460 1
     948      590     1959 1
     949     2060     1690 1
     950      153      465 1
     951     1195     1671 1
     952       63     1312 1
     953     1501     1887 1
     954     1325      469 1
     955     1511     1822 1
     956      886     1564 1
     957     1872     1942 1
     958      934      299 1
     959      909     2066 1
     960      735     1005 1
     961      535     1250 1
     962     1352      143 1
     963       33     2063 1
     964     2064      642 1
     965      975      322 1
     966     1594     1042 1
     967     1775     1563 1
     968      349      291 1
     969      733      261 1
     970     1463     1994 1
     971     1836     1698 1
     972      618      402 1
     973     2086     1925 1
     974     1408     1628 1
     975      945     2000 1
     976      337     1850 1
     977      683      599 1
     978      508     1674 1
     979      497     1800 1
     980     1388     1451 1
     981      702     1853 1
     982      279     1772 1
     983     1277       27 1
     984      900      492 1
     985      243     1648 1
     986     1215     1435 1
     987      896     1697 1
     988      630     1030 1
     989      333      192 1
     990      537      133 1
     991       83     2028 1
     992      835     1945 1
     993     1545     2020 1
     994     1451      209 1
     995      705      284 1
     996     1914      287 1
     997     1067     2038 1
     998     1416      887 1
     999     1224      664 1
    1000      624      884 1
    1001     1051     1626 1
    1002       85     1044 1
    1003      584      496 1
    1004      706      830 1
    1005     1509     1840 1
    1006      749     1013 1
    1007     2049     1883 1
    1008     1106     1013 1
    1009     1087      990 1
    1010     1823     1253 1
    1011      943      595 1
    1012     1843     1615 1
    1013     2041     1928 1
    1014     1222      912 1
    1015     1397     1396 1
    1016     1122      521 1
    1017     1321      666 1
    1018       84      472 1
    1019      630      656 1
    1020     1221      322 1
    1021     1143     1485 1
    1022       37     1035 1
    1023      712      991 1
    1024      749     1751 1
    1025      959      971 1
    1026      350     1228 1
    1027      632     1814 1
    1028     1586      509 1
    1029      240     1820 1
    1030     1026      115 1
    1031      150      408 1
    1032      739     1234 1
    1033     1408      717 1
    1034      807      295 1
    1035     1275     1873 1
    1036      864      129 1
    1037      671      377 1
    1038      710      691 1
    1039       68     1398 1
    1040     1405     1206 1
    1041     1206      479 1
    1042      835     1553 1
    1043      846      136 1
    1044      243     1254 1
    1045      438      475 1
    1046      657      643 1
    1047       27      232 1
    1048       85     2074 1
    1049     1691     1658 1
    1050      714      667 1
    1051     1003     1442 1
    1052     1549     2062 1
    1053      185     1950 1
    1054      435     1452 1
    1055      692     1456 1
    1056     1118     1180 1
    1057     1836      198 1
    1058     1523      784 1
    1059      866      665 1
    1060      549     1409 1
    1061     1154     1923 1
    1062      758     1787 1
    1063     1280     2066 1
    1064      994      462 1
    1065     1543     1789 1
    1066      930      300 1
    1067      360     1191 1
    1068     1012      463 1
    1069     1017     1808 1
    1070     1399     1574 1
    1071      989     1974 1
    1072      380     1239 1
    1073      534     1647 1
    1074     1353      475 1
    1075      274     1930 1
    1076      470      816 1
    1077       65      304 1
    1078      149     1851 1
    1079      414     2041 1
    1080       88      714 1
    1081     1428      355 1
    1082      314      376 1
    1083     1402      570 1
    1084     1425      130 1
    1085     2004     1924 1
    1086      263      582 1
    1087     1587     1496 1
    1088      683     1454 1
    1089      326      963 1
    1090      263      380 1
    1091      867     1190 1
    1092     1377      899 1
    1093      686      313 1
    1094      424      667 1
    1095      658     1945 1
    1096       60      608 1
    1097     1263     1178 1
    1098      925     1991 1
    1099      531       56 1
    1100      679     2036 1
    1101      426     1164 1
    1102     1432      318 1
    1103     1087     1419 1
    1104       78      987 1
    1105       23     1860 1
    1106      853     1937 1
    1107      182     1894 1
    1108     1516     1724 1
    1109      981      603 1
    1110     1568      196 1
    1111      269      159 1
    1112      682      306 1
    1113     1531      620 1
    1114     2034      607 1
    1115     1501     1432 1
    1116      391      331 1
    1117      493     1167 1
    1118      662     1672 1
    1119      700     2066 1
    1120      251     1774 1
    1121      841     1741 1
    1122     1193      592 1
    1123     2006     1697 1
    1124      854       35 1
    1125       34      594 1
    1126      623     2054 1
    1127      353      328 1
    1128     1062     1654 1
    1129      613      431 1
    1130     1024      123 1
    1131     1161      810 1
    1132      262      657 1
    1133     1565      638 1
    1134      825     1573 1
    1135     2100      101 1
    1136     1485     1463 1
    1137      713      602 1
    1138      569     1637 1
    1139     1498     1550 1
    1140     1587     1084 1
    1141      478     1899 1
    1142     1447      284 1
    1143      916     2052 1
    1144     1013     1740 1
    1145      143       22 1
    1146     1086     2099 1
    1147     1138      210 1
    1148      926     1681 1
    1149      776      170 1
    1150      950      642 1
    1151     1265      410 1
    1152      396     1582 1
    1153      742      183 1
    1154     1127     1245 1
    1155      778     1937 1
    1156     1575      636 1
    1157     1420     1809 1
    1158     1073      473 1
    1159     1136      275 1
    1160      365      887 1
    1161     1456     1888 1
    1162     1089     1014 1
    1163     1327     1621 1
    1164      804     1896 1
    1165     2002      372 1
    1166     1784     1170 1
    1167       92     1496 1
    1168     1146       59 1
    1169      619      390 1
    1170      404     1841 1
    1171     1505     1932 1
    1172      579      499 1
    1173      715      286 1
    1174     1478     1578 1
    1175      439      959 1
    1176     1076     1159 1
    1177       87     1108 1
    1178     1398      827 1
    1179     1631      100 1
    1180      924     1190 1
    1181     1381     1026 1
    1182     1028      239 1
    1183      562     2053 1
    1184     1226     1553 1
    1185     1691      968 1
    1186     1070      277 1
    1187     1321      668 1
    1188      428      873 1
    1189       35      231 1
    1190      416       31 1
    1191     1423     1323 1
    1192     1369      214 1
    1193     1815     1376 1
    1194     1810      371 1
    1195     1597      382 1
    1196      492     2065 1
    1197     1626     1629 1
    1198     1861      301 1
    1199       18       40 1
    1200     2016      128 1
    1201     1062      777 1
    1202      521      721 1
    1203      802      385 1
    1204     1952      886 1
    1205     1406     1778 1
    1206      400     1763 1
    1207     1275      507 1
    1208      737     1837 1
    1209      518      100 1
    1210     1599     1700 1
    1211      545     1577 1
    1212      824      838 1
    1213      148     1071 1
    1214      338     1817 1
    1215      249     1655 1
    1216      397     1936 1
    1217      573      281 1
    1218     1503     2027 1
    1219      931     1194 1
    1220     1443     1739 1
    1221     2029      455 1
    1222     2046      768 1
    1223      219      738 1
    1224     1417      681 1
    1225     1459     1668 1
    1226      187     1895 1
    1227     2070     2084 1
    1228     1148     1871 1
    1229     1413     1446 1
    1230     2031      165 1
    1231      832     1933 1
    1232     2004     2095 1
    1233     1515     1778 1
    1234     1092     1498 1
    1235     1540     1514 1
    1236     1590      298 1
    1237      630     1828 1
    1238      745     1643 1
    1239      940     1657 1
    1240     1458      821 1
    1241     1561      883 1
    1242      832      978 1
    1243     1747     1656 1
    1244     1410     1172 1
    1245       99     1986 1
    1246      574       45 1
    1247      442      780 1
    1248     1072      485 1
    1249     1596     1383 1
    1250       79     1178 1
    1251     1592     1037 1
    1252     1457     1238 1
    1253      402      715 1
    1254     1113     1992 1
    1255      690      882 1
    1256     1953     1794 1
    1257     1990      456 1
    1258     1136     1881 1
    1259      395      157 1
    1260     1485     1999 1
    1261     2051     1993 1
    1262     1049     1368 1
    1263      154     1573 1
    1264      669     1640 1
    1265      499     1184 1
    1266     1003      590 1
    1267      596     1731 1
    1268      592      308 1
    1269     2038       57 1
    1270      990      943 1
    1271      844     1754 1
    1272       87     1200 1
    1273      501     1878 1
    1274     1426     1209 1
    1275       96     1457 1
    1276     2089      213 1
    1277      977       26 1
    1278     1377       19 1
    1279       74      978 1
    1280      432     1012 1
    1281     1263       48 1
    1282     1227      128 1
    1283     1078      949 1
    1284     1724      776 1
    1285     1272     1961 1
    1286      982      891 1
    1287      188     1556 1
    1288      828      894 1
    1289     1388     1449 1
    1290     2060      461 1
    1291     1443     1714 1
    1292     1465     1724 1
    1293     1391      491 1
    1294      476     1260 1
    1295     1926     1653 1
    1296     1048      455 1
    1297      862     1325 1
    1298      860     1742 1
    1299     1268      283 1
    1300      908     1987 1
    1301      385      763 1
    1302     1990      121 1
    1303      554     1307 1
    1304     1418      761 1
    1305      224      145 1
    1306     1009     2048 1
    1307      983     1929 1
    1308      920      117 1
    1309     1500      622 1
    1310      255     1722 1
    1311      693     1618 1
    1312      351     2014 1
    1313       92     1665 1
    1314      952     1364 1
    1315      405      881 1
    1316     1134      965 1
    1317     1546      899 1
    1318     1538      187 1
    1319     1121      110 1
    1320     1540      542 1
    1321     1591     1283 1
    1322      282     1611 1
    1323     1152     1854 1
    1324     1118      811 1
    1325     1349      293 1
    1326     2002      452 1
    1327      972      486 1
    1328     1198     1657 1
    1329      764      213 1
    1330      148     1968 1
    1331     1109      523 1
    1332       95      656 1
    1333     2022     1732 1
    1334     1129      716 1
    1335      356     1857 1
    1336      515     1518 1
    1337     1450     1568 1
    1338     1098       49 1
    1339      837     1966 1
    1340     1076     1973 1
    1341     1808     1943 1
    1342     1021     1868 1
    1343     1737       55 1
    1344     1219     1777 1
    1345     1916       52 1
    1346      655     2078 1
    1347     1307      889 1
    1348      923      359 1
    1349     1556      374 1
    1350      694      448 1
    1351     1513      588 1
    1352      225      281 1
    1353     1343     1770 1
    1354      792     2085 1
    1355     1497      446 1
    1356     1390     1941 1
    1357     1743     1255 1
    1358        5     1842 1
    1359      730     1769 1
    1360      720     1677 1
    1361     1051     1924 1
    1362      581     1303 1
    1363      684     1322 1
    1364      580     1745 1
    1365      576      943 1
    1366     1136      892 1
    1367      954      126 1
    1368     1399     1020 1
    1369     1269      666 1
    1370     1111      163 1
    1371      246      129 1
    1372     1797     1244 1
    1373      753     2078 1
    1374     1181     1945 1
    1375     1069      486 1
    1376     1598      351 1
    1377     1418      287 1
    1378      191      323 1
    1379     1653     1372 1
    1380      763      806 1
    1381       34       28 1
    1382     1597     1083 1
    1383     1016     1758 1
    1384      711     1984 1
    1385     1318     1181 1
    1386      242      767 1
    1387      511       35 1
    1388     1473     1625 1
    1389     1920     1619 1
    1390      482     1464 1
    1391      702      680 1
    1392      449      106 1
    1393     1401     1979 1
    1394     1535     1117 1
    1395     1086     1111 1
    1396     1176      641 1
    1397      480     1643 1
    1398     1859     1579 1
    1399     1787       63 1
    1400     1524      532 1
    1401     1840      455 1
    1402     1227      936 1
    1403      548     1502 1
    1404     1508      911 1
    1405     2076     1231 1
    1406     1891     1632 1
    1407      227     1892 1
    1408     1569      120 1
    1409      254     1309 1
    1410     2003     1859 1
    1411      384      577 1
    1412     1341     1605 1
    1413      191     1471 1
    1414      652     1772 1
    1415      933      106 1
    1416      816     1795 1
    1417      718      876 1
    1418     1482     2065 1
    1419       91      969 1
    1420      859     1078 1
    1421      255     1798 1
    1422     1021      305 1
    1423      703      445 1
    1424     1591      569 1
    1425     1970     1255 1
    1426      803      402 1
    1427      484     1603 1
    1428     1152     1851 1
    1429      375      644 1
    1430      290     1931 1
    1431      242     1968 1
    1432     1109     1823 1
    1433     1886     1620 1
    1434      409     1905 1
    1435     1550     1773 1
    1436     1597      317 1
    1437       89      668 1
    1438      917     1643 1
    1439     2049     1179 1
    1440     1323      602 1
    1441      875     1813 1
    1442      931      807 1
    1443      665     1882 1
    1444      571      963 1
    1445      816     1684 1
    1446      249     1462 1
    1447     2102     1614 1
    1448       69     1018 1
    1449      238     1768 1
    1450     1351      237 1
    1451      939     1374 1
    1452     1130      571 1
    1453      712     1777 1
    1454      332     1365 1
    1455     1345     1467 1
    1456      164      126 1
    1457     1511     1819 1
    1458     1410      807 1
    1459      340     1605 1
    1460     1396     1885 1
    1461      764     1777 1
    1462       40     1638 1
    1463     1958     1811 1
    1464     1539      384 1
    1465      693     1897 1
    1466     1995     1312 1
    1467     1137      270 1
    1468       98      472 1
    1469      148       50 1
    1470      278     1633 1
    1471     1517     1872 1
    1472       93      403 1
    1473      215     1571 1
    1474     1398     1867 1
    1475     1492      214 1
    1476      621      364 1
    1477     1300      883 1
    1478      544     1994 1
    1479      327     1607 1
    1480     1491     1128 1
    1481      860     1724 1
    1482     1389      264 1
    1483      141     1914 1
    1484      730      893 1
    1485      332     1573 1
    1486      555      391 1
    1487      216     1993 1
    1488     1209     1685 1
    1489      428     1907 1
    1490     1202      373 1
    1491      704      644 1
    1492      221     1371 1
    1493      285     1746 1
    1494     1089     1340 1
    1495     1077     1189 1
    1496      810     1760 1
    1497      246     1969 1
    1498      825     2102 1
    1499      811     2010 1
    1500     1162      622 1
    1501      724     1562 1
    1502     1209     1040 1
    1503      450      378 1
    1504     1088      137 1
    1505      260     1432 1
    1506     1279      434 1
    1507      689     1982 1
    1508      788     2016 1
    1509       31     1699 1
    1510     1521     1566 1
    1511     1007     1471 1
    1512     1522      566 1
    1513      388      296 1
    1514     1332     1376 1
    1515     1494     1933 1
    1516      726     1918 1
    1517      339      271 1
    1518      974     1615 1
    1519     1077     1904 1
    1520      152      806 1
    1521     1388     1848 1
    1522      698      341 1
    1523     1965     1623 1
    1524      741      191 1
    1525     1475     1445 1
    1526      472      312 1
    1527     1358     1294 1
    1528       23     1756 1
    1529     1730     1647 1
    1530      278     1955 1
    1531      545      752 1
    1532     1335     1474 1
    1533     1531     2067 1
    1534     1140       30 1
    1535     1975      770 1
    1536      142     1664 1
    1537      717     1568 1
    1538     1598     1902 1
    1539     1775     1704 1
    1540      998     1979 1
    1541      222      328 1
    1542     1392     1921 1
    1543      545      508 1
    1544     1125     1573 1
    1545     1964      130 1
    1546      759     1843 1
    1547     1768     1708 1
    1548      565      286 1
    1549     1994      880 1
    1550     1656     1608 1
    1551     1554       24 1
    1552     1115     1613 1
    1553     1153      900 1
    1554      952      583 1
    1555      721      381 1
    1556      223     1951 1
    1557      147      986 1
    1558     1288      297 1
    1559     1816     1694 1
    1560      498     1673 1
    1561      967      648 1
    1562      293      292 1
    1563      532     1985 1
    1564     1144      584 1
    1565      841     1677 1
    1566     2100     1247 1
    1567     1506      897 1
    1568     1438      814 1
    1569     1589      126 1
    1570     1980     1373 1
    1571     1913       57 1
    1572      505      714 1
    1573      731     2035 1
    1574     1021     1762 1
    1575      690      130 1
    1576      683      387 1
    1577      467      678 1
    1578       83      910 1
    1579      154      523 1
    1580      948     1458 1
    1581      344     1196 1
    1582      695     1007 1
    1583     1549     1828 1
    1584      937     1293 1
    1585     2010     1247 1
    1586     1387     1763 1
    1587      707     1295 1
    1588     1402     1481 1
    1589      941      240 1
    1590      452      769 1
    1591     1445     1228 1
    1592     1424      937 1
    1593      579     1669 1
    1594      355     1729 1
    1595     1200     1640 1
    1596     1210     1015 1
    1597     1541     1980 1
    1598      179       20 1
    1599     1824      204 1
    1600     1439      456 1
    1601      751     1503 1
    1602      418     1829 1
    1603      144     1962 1
    1604     1324      622 1
    1605      754     1365 1
    1606      720     1173 1
    1607      386     2070 1
    1608     1408      324 1
    1609      568       12 1
    1610     1159     1746 1
    1611     1195      494 1
    1612      718      169 1
    1613      554      809 1
    1614      665     1010 1
    1615      266     2022 1
    1616      791      286 1
    1617      905     1362 1
    1618       88     1683 1
    1619      581      634 1
    1620     1882      641 1
    1621     1739      768 1
    1622       53       56 1
    1623        2      844 1
    1624       65      598 1
    1625       20     1039 1
    1626      914     2011 1
    1627     2020     1606 1
    1628      991     1846 1
    1629     1978      782 1
    1630     1190     1243 1
    1631      936      723 1
    1632      867     1146 1
    1633      572     2086 1
    1634     1273     1119 1
    1635     1962     1752 1
    1636      914      131 1
    1637     1874     1800 1
    1638       78     1020 1
    1639     1057      331 1
    1640     1474      583 1
    1641       35     1242 1
    1642      863     1651 1
    1643      626     2035 1
    1644      928     1584 1
    1645      791     1248 1
    1646     1710      379 1
    1647      912     1728 1
    1648      459     1674 1
    1649      727     1188 1
    1650      100      605 1
    1651     1320     1288 1
    1652      858     1985 1
    1653      195     1660 1
    1654     1966      955 1
    1655      489     1824 1
    1656      745     1472 1
    1657      152     1634 1
    1658     1051      162 1
    1659     2086     1790 1
    1660      429     1962 1
    1661      657     2090 1
    1662      195      245 1
    1663      689     1177 1
    1664      673      495 1
    1665      493      459 1
    1666     1836      458 1
    1667      274      727 1
    1668     1022     2035 1
    1669      405     2036 1
    1670      560     1755 1
    1671      906     1098 1
    1672      343       19 1
    1673      744      833 1
    1674      360      116 1
    1675      334     2011 1
    1676     1039      638 1
    1677     1731     1751 1
    1678      474      369 1
    1679     1805      970 1
    1680      426      672 1
    1681     1356     1546 1
    1682      248     1470 1
    1683      552     1301 1
    1684      669     2047 1
    1685      684     1863 1
    1686     1071      768 1
    1687      473     1890 1
    1688      342      894 1
    1689      248      612 1
    1690     1377     1486 1
    1691      420      579 1
    1692     1213     1887 1
    1693      873      333 1
    1694      566     1873 1
    1695     1189     1672 1
    1696     1478      653 1
    1697     1327     1139 1
    1698     1681     1362 1
    1699     1812       48 1
    1700      500     1695 1
    1701     1675      778 1
    1702      619      550 1
    1703     1468     2106 1
    1704      685     1207 1
    1705      589     1260 1
    1706      852     1975 1
    1707       99     1692 1
    1708     1098      606 1
    1709     1108        9 1
    1710      861     1585 1
    1711      236     1297 1
    1712      396     2048 1
    1713      919     1523 1
    1714     1468     1754 1
    1715      756      358 1
    1716      704     2098 1
    1717      999     1240 1
    1718     1598     1079 1
    1719      415     1975 1
    1720     2071     1950 1
    1721     1186     1041 1
    1722      352     1877 1
    1723     1821      600 1
    1724       20     1806 1
    1725     1429     1359 1
    1726      467     1050 1
    1727     1961      132 1
    1728       97      145 1
    1729       58      968 1
    1730      190     1923 1
    1731      484     2044 1
    1732      836      942 1
    1733      221     2045 1
    1734     1807     1949 1
    1735      837      770 1
    1736      731     1473 1
    1737      424     1718 1
    1738     1630     1232 1
    1739       76     1472 1
    1740      182      609 1
    1741     1911     1679 1
    1742      186       34 1
    1743      756     1241 1
    1744      143     1869 1
    1745      421      379 1
    1746     1781     1613 1
    1747      553      470 1
    1748      146     1487 1
    1749      713      840 1
    1750     1538      255 1
    1751      849     1297 1
    1752      972      304 1
    1753     1589     1929 1
    1754      993      481 1
    1755      997      157 1
    1756      979     1031 1
    1757      725     1674 1
    1758      424     1045 1
    1759        6     1942 1
    1760     1845     1666 1
    1761      707     1337 1
    1762      803      289 1
    1763      591     1620 1
    1764      851     1622 1
    1765     1855     1037 1
    1766       98     1899 1
    1767     1475     1231 1
    1768     1458     2003 1
    1769       79     1355 1
    1770     1510      483 1
    1771      383     1507 1
    1772      730     1881 1
    1773     1214     2035 1
    1774     1128     2064 1
    1775      560     2103 1
    1776     2031     1953 1
    1777     1811     1744 1
    1778      846     1620 1
    1779      750     1891 1
    1780      765      817 1
    1781      742     1183 1
    1782     2019      635 1
    1783     1270     1763 1
    1784      697      684 1
    1785      337     1702 1
    1786      359     1682 1
    1787     1221     1773 1
    1788      530     1376 1
    1789      189     2056 1
    1790      460      602 1
    1791       27     1912 1
    1792      868     1457 1
    1793     2069     2076 1
    1794      365     1034 1
    1795     1125      957 1
    1796     1622     1631 1
    1797     1400      192 1
    1798      908      879 1
    1799      229     1670 1
    1800     1298      445 1
    1801     1354     1837 1
    1802     2023      102 1
    1803     2079     1256 1
    1804     1077      469 1
    1805      514     1673 1
    1806     1353     1933 1
    1807     1791      647 1
    1808      760      961 1
    1809      979     1916 1
    1810      913      250 1
    1811      939      716 1
    1812      479      229 1
    1813      685     1294 1
    1814      549     1150 1
    1815      244     1042 1
    1816     1901      961 1
    1817     1412     1333 1
    1818      246     1584 1
    1819     1531     1261 1
    1820      528     1260 1
    1821     1512     1163 1
    1822     1423     1971 1
    1823     1723     1629 1
    1824     1345      336 1
    1825      735        9 1
    1826     1090      254 1
    1827      799       20 1
    1828      471     1899 1
    1829     1285     1934 1
    1830     1224       39 1
    1831     2031      108 1
    1832     1469      769 1
    1833     1683       59 1
    1834     1466     1776 1
    1835      218      856 1
    1836     1077     1736 1
    1837      992      911 1
    1838      763     1874 1
    1839      510      665 1
    1840     1005     1217 1
    1841     1235      126 1
    1842       40     1951 1
    1843       81     1448 1
    1844     1661      300 1
    1845      613      221 1
    1846     1507     1099 1
    1847      461     1751 1
    1848     1126     2080 1
    1849     2104     1645 1
    1850       91     1257 1
    1851      550     1285 1
    1852     1004      389 1
    1853     1412     1380 1
    1854     1153     1733 1
    1855       67      805 1
    1856       75       24 1
    1857     1742     1713 1
    1858     1861      166 1
    1859      502      250 1
    1860      943       18 1
    1861     1380       52 1
    1862     1124      278 1
    1863     1870     1288 1
    1864      853     1814 1
    1865     1186     2092 1
    1866        3      769 1
    1867     1823     1703 1
    1868     1136     1627 1
    1869      308     1641 1
    1870     1517      526 1
    1871     1856     1747 1
    1872      342     1420 1
    1873     1380     1461 1
    1874     1475     1957 1
    1875      708      966 1
    1876     1804      602 1
    1877      389      725 1
    1878     1130      964 1
    1879      798     1753 1
    1880      709      258 1
    1881     1384     1832 1
    1882     1596     1649 1
    1883      826     1228 1
    1884      549      133 1
    1885      616     1926 1
    1886     1216      167 1
    1887     1602     1931 1
    1888      961     1571 1
    1889     1088      600 1
    1890      335     1244 1
    1891     1533      955 1
    1892      252      782 1
    1893      562     1782 1
    1894      862      604 1
    1895      864     1712 1
    1896      348     1982 1
    1897      869      494 1
    1898     1934     1603 1
    1899     1118     1211 1
    1900      991     1766 1
    1901      570      447 1
    1902      904     2010 1
    1903     1100     1826 1
    1904     1860      131 1
    1905      780     1621 1
    1906     1863       48 1
    1907      659      371 1
    1908      149      876 1
    1909      802     1424 1
    1910     1510     1760 1
    1911     1988     1775 1
    1912      354     1440 1
    1913     1712     1239 1
    1914     1350     1721 1
    1915      273     1360 1
    1916     1556       29 1
    1917      257      963 1
    1918     1132       28 1
    1919     1000      477 1
    1920       41      213 1
    1921      234     1700 1
    1922      937     2079 1
    1923     1753      446 1
    1924      250      483 1
    1925     1753     1370 1
    1926      748     2014 1
    1927     1216     1649 1
    1928       11      199 1
    1929     1074     1318 1
    1930     2006     1641 1
    1931      908     1946 1
    1932     1152      942 1
    1933      261     1701 1
    1934      618     1601 1
    1935     1588      190 1
    1936      498     1101 1
    1937     1513     1707 1
    1938     2000     1725 1
    1939     1001     1026 1
    1940      927     1944 1
    1941     1521     1936 1
    1942      578     1710 1
    1943     2082      365 1
    1944     2015     2092 1
    1945      436      894 1
    1946      840      166 1
    1947      619     1956 1
    1948     1012      367 1
    1949      502     1830 1
    1950     1199     1857 1
    1951      893      775 1
    1952     1871     1759 1
    1953      988     1827 1
    1954      632      672 1
    1955     1497      236 1
    1956     1769     1770 1
    1957     1490     1335 1
    1958      628      130 1
    1959     1472     2083 1
    1960     1546     1954 1
    1961      754     1664 1
    1962      488     2041 1
    1963     2073     1241 1
    1964     1089     2007 1
    1965     1435     2004 1
    1966     1484     1257 1
    1967     1273     1504 1
    1968      697     1355 1
    1969      678     1453 1
    1970     1676     1182 1
    1971     1262      474 1
    1972      799     1102 1
    1973      192      760 1
    1974       12     2100 1
    1975      552     1057 1
    1976      405     1010 1
    1977     1502      838 1
    1978     1590     1236 1
    1979     1600      831 1
    1980     1114      288 1
    1981      527     2022 1
    1982      857     1505 1
    1983     2000      109 1
    1984     1830     1572 1
    1985     1093     1203 1
    1986     1680     1372 1
    1987     1496      230 1
    1988      359     2026 1
    1989     1875     1791 1
    1990     1000     1032 1
    1991      491     1678 1
    1992      928      907 1
    1993      755     1723 1
    1994      830     1752 1
    1995     1047      366 1
    1996     1328     1234 1
    1997     1505     1764 1
    1998      438     2011 1
    1999     1274     1137 1
    2000     1346     2068 1
    2001     1110      501 1
    2002     1977     1245 1
    2003     1013      302 1
    2004      704     1554 1
    2005     1203     1675 1
    2006     1534      157 1
    2007      919      934 1
    2008      666      125 1
    2009     1208     1931 1
    2010      830      664 1
    2011     1493      670 1
    2012     2034      310 1
    2013      694     1541 1
    2014      632      201 1
    2015     1473      440 1
    2016      842      444 1
    2017      922     1647 1
    2018     1049     1302 1
    2019     1758     1363 1
    2020      403     1878 1
    2021     1174     1566 1
    2022     1985      201 1
    2023     1141      199 1
    2024     1286     1611 1
    2025     1518      949 1
    2026     1003     1755 1
    2027     1458      820 1
    2028      810      487 1
    2029      741     1972 1
    2030     1561      171 1
    2031      866     2018 1
    2032     1248      202 1
    2033     1537     1643 1
    2034     1436      940 1
    2035     1333      661 1
    2036      698      156 1
    2037     1928      969 1
    2038     1519     1443 1
    2039      814     1634 1
    2040      561     1035 1
    2041     1151      159 1
    2042     1047     2091 1
    2043        7     1260 1
    2044     1494      159 1
    2045       82      498 1
    2046     2101     1887 1
    2047     1338     1480 1
    2048      824     1786 1
    2049      604      135 1
    2050      450     1254 1
    2051      536      638 1
    2052      413      258 1
    2053      951      636 1
    2054     1502     1628 1
    2055      624     1809 1
    2056     1001     1440 1
    2057      865     1496 1
    2058     1469      584 1
    2059     1526     1600 1
    2060     1211      229 1
    2061       56     1580 1
    2062     1395     1365 1
    2063      407     1316 1
    2064      553      298 1
    2065      996     1889 1
    2066     1054     1942 1
    2067      873      346 1
    2068     2033      170 1
    2069     1457      203 1
    2070     1061      905 1
    2071      692     1824 1
    2072     1158     1128 1
    2073       73     1331 1
    2074      947     1750 1
    2075     1453     1935 1
    2076     1082     1807 1
    2077     1056     1916 1
    2078     1267      431 1
    2079     1531      398 1
    2080     1276      344 1
    2081      553      295 1
    2082     1382     1903 1
    2083      873      294 1
    2084      412      492 1
    2085      556     1507 1
    2086      228     1102 1
    2087     1092     2046 1
    2088      596     1947 1
    2089      847      889 1
    2090     1200      244 1
    2091     1217     1917 1
    2092     1540      812 1
    2093     1271      891 1
    2094      434      102 1
    2095      627      364 1
    2096      695     1102 1
    2097      474     1783 1
    2098     1486      578 1
    2099       75     1205 1
    2100     1076      557 1
    2101     1333      315 1
    2102      399     1630 1
    2103     1140     1577 1
    2104     1411      923 1
    2105     1685      159 1
    2106     1066      840 1
    2107     1055     1972 1
    2108       80     1650 1
    2109      706      953 1
    2110      733     1389 1
    2111     1419      355 1
    2112     1415     1611 1
    2113      708     1137 1
    2114     1588     1818 1
    2115     1065     1658 1
    2116     1433      597 1
    2117      698     1422 1
    2118       95     1282 1
    2119     1157      496 1
    2120     1427     2076 1
    2121      519     1543 1
    2122      181     1838 1
    2123     1586     1310 1
    2124     1559     1455 1
    2125      399     2104 1
    2126      406      783 1
    2127      631     1024 1
    2128     2007     1827 1
    2129     1808     1669 1
    2130     1955     1290 1
    2131      317     1041 1
    2132       89      213 1
    2133      404     1100 1
    2134       93      205 1
    2135     1552     1871 1
    2136      980     1738 1
    2137     1488     1938 1
    2138     1239      161 1
    2139     1245      198 1
    2140     1385      113 1
    2141     1283      603 1
    2142     1549      132 1
    2143     1348      243 1
    2144      551       57 1
    2145     1279      960 1
    2146      268     1184 1
    2147     1984      285 1
    2148     2005     1632 1
    2149      616     1336 1
    2150      252      465 1
    2151     2041     1927 1
    2152      421      598 1
    2153      701     1122 1
    2154      615      779 1
    2155      233      136 1
    2156      852      980 1
    2157     1967     1983 1
    2158     1105       61 1
    2159     1319      205 1
    2160     1429      441 1
    2161     1346     1068 1
    2162     1233      174 1
    2163      411     1791 1
    2164     1224      674 1
    2165     1666     1171 1
    2166     1502     1948 1
    2167     1830     1796 1
    2168     1225     1728 1
    2169     1421      473 1
    2170     1499      756 1
    2171      408     1437 1
    2172     1129     1796 1
    2173     2039      230 1
    2174      868      996 1
    2175     1532      553 1
    2176       10      363 1
    2177      352     2074 1
    2178      844     2096 1
    2179       81     1370 1
    2180      137     1212 1
    2181     1008      514 1
    2182     1794     1946 1
    2183     1407      136 1
    2184      696     1315 1
    2185     1998     1817 1
    2186      736     1312 1
    2187      694     1850 1
    2188       33     1655 1
    2189     1128     2077 1
    2190      982     1647 1
    2191      530      937 1
    2192     1520      377 1
    2193       54      604 1
    2194     1019     1042 1
    2195      435      181 1
    2196      986     1638 1
    2197      229     1574 1
    2198       85      611 1
    2199      790      597 1
    2200     1492     1686 1
    2201     1142     1942 1
    2202     1014     1655 1
    2203     1857     1565 1
    2204      228     1926 1
    2205     1087     1400 1
    2206      855     1608 1
    2207      581     1616 1
    2208     1158      911 1
    2209      145     1326 1
    2210     1199     1108 1
    2211     1130     1183 1
    2212      529     1627 1
    2213      877      636 1
    2214     1106     1794 1
    2215      140      580 1
    2216      915     1717 1
    2217     1346     1779 1
    2218     2027     1721 1
    2219     1959      235 1
    2220      679      200 1
    2221     1425      121 1
    2222      383      375 1
    2223      218     1064 1
    2224      766     1721 1
    2225     1413     1004 1
    2226     1063     1921 1
    2227     1155      491 1
    2228     1070     1156 1
    2229      895     1758 1
    2230     1110     1748 1
    2231     1143      313 1
    2232     1394     2000 1
    2233      273       43 1
    2234     1355      895 1
    2235      347     1413 1
    2236       95      257 1
    2237      506     1907 1
    2238      424     1659 1
    2239     1509     1689 1
    2240     1513      965 1
    2241      427      865 1
    2242      509     1100 1
    2243       85      599 1
    2244      822     1805 1
    2245      829     1550 1
    2246      423      623 1
    2247      519     1792 1
    2248      989      212 1
    2249     2010     1572 1
    2250      396     1960 1
    2251      420      755 1
    2252      495     1767 1
    2253     1513      376 1
    2254     1319      316 1
    2255      339     1762 1
    2256     2104     1847 1
    2257      338      121 1
    2258      794     1976 1
    2259      693      921 1
    2260      997      676 1
    2261     1390       30 1
    2262     1914     1036 1
    2263      933      869 1
    2264      477      500 1
    2265     1478      466 1
    2266     1313      780 1
    2267      360       32 1
    2268     1586      740 1
    2269     1462     1831 1
    2270     1841     1238 1
    2271     1149     1012 1
    2272      329      314 1
    2273     1278     2031 1
    2274     1266     1262 1
    2275     1534     1772 1
    2276      468     1619 1
    2277     1992     1915 1
    2278     1073      209 1
    2279     1591     1043 1
    2280     1403      110 1
    2281     1524      709 1
    2282      524     1816 1
    2283     2025       60 1
    2284      219      889 1
    2285      921      966 1
    2286      379      784 1
    2287      327      457 1
    2288     1510     1646 1
    2289     2058     1820 1
    2290     1157      464 1
    2291      261     1716 1
    2292      387     1936 1
    2293     1389      771 1
    2294      395      306 1
    2295     1130      896 1
    2296     1921     1706 1
    2297      994      980 1
    2298     2057      445 1
    2299       36      888 1
    2300     1512     1225 1
    2301       66     1557 1
    2302      925     1714 1
    2303     1300      167 1
    2304      454      379 1
    2305     1357     2018 1
    2306      549     1373 1
    2307      239     1726 1
    2308     1205      247 1
    2309     1582     1816 1
    2310       57     1233 1
    2311      820     1369 1
    2312     1959     1036 1
    2313      310      639 1
    2314     1331     1795 1
    2315      152     1222 1
    2316      582     2085 1
    2317     1318     1717 1
    2318      707     1235 1
    2319     1194     1610 1
    2320      932     2002 1
    2321     1779     1655 1
    2322      735     1612 1
    2323      660      136 1
    2324      560      649 1
    2325     1067     1167 1
    2326      748      267 1
    2327     1536      594 1
    2328     1774      105 1
    2329     1413     1483 1
    2330      510     1047 1
    2331     1196     1620 1
    2332      724      175 1
    2333     1084      362 1
    2334      624      238 1
    2335      839     1817 1
    2336      334      978 1
    2337      558     1551 1
    2338     1218     1800 1
    2339      651      584 1
    2340     1596     1862 1
    2341     1203     1516 1
    2342      681     1686 1
    2343      434     1895 1
    2344     2069     1668 1
    2345     1808     1749 1
    2346      140      253 1
    2347     1214     1559 1
    2348     1378      775 1
    2349      359      111 1
    2350     1972     1375 1
    2351      547     1299 1
    2352     1142     1041 1
    2353      920     1833 1
    2354      788      442 1
    2355     1558      966 1
    2356      702      374 1
    2357     1923     1901 1
    2358     1138     1793 1
    2359       83     1880 1
    2360      490     1776 1
    2361      547      823 1
    2362     1403      625 1
    2363      750      301 1
    2364     1066     1544 1
    2365     2087     1697 1
    2366      426      533 1
    2367      462     1361 1
    2368      856     1316 1
    2369      372      642 1
    2370     1903      211 1
    2371     1417     2014 1
    2372     1121      118 1
    2373     1971     1364 1
    2374      538     1965 1
    2375      540     1316 1
    2376     1062     1667 1
    2377     1920      646 1
    2378     2060      368 1
    2379      585      206 1
    2380      744     1841 1
    2381     2039     1788 1
    2382      834      814 1
    2383       77     1108 1
    2384     1652      293 1
    2385     1220      721 1
    2386     2093     1650 1
    2387      417     2060 1
    2388      540     1871 1
    2389     1074     1369 1
    2390      562      115 1
    2391     1225        8 1
    2392     1544       42 1
    2393      912      593 1
    2394     1075     1929 1
    2395     1202     1995 1
    2396       71      313 1
    2397     1683      785 1
    2398     1223     1778 1
    2399      527       45 1
    2400      903      289 1
    2401     1764      170 1
    2402      215      147 1
    2403      840      127 1
    2404       96      836 1
    2405       69     1492 1
    2406     1110     2024 1
    2407      344     2009 1
    2408      985     1797 1
    2409     1544     2105 1
    2410      575     1168 1
    2411     1601      116 1
    2412      796     1029 1
    2413      737     1608 1
    2414       94      646 1
    2415       68     1411 1
    2416      258      528 1
    2417      991     2094 1
    2418     1838     1720 1
    2419      906     1015 1
    2420       60     1230 1
    2421     1043      642 1
    2422      319      607 1
    2423     1967     1738 1
    2424     2081      969 1
    2425     1016     2063 1
    2426       16     1665 1
    2427     1416      620 1
    2428      523     1913 1
    2429      746     1861 1
    2430      946     1944 1
    2431      439     2070 1
    2432     1342      187 1
    2433     1084      312 1
    2434     1059     1311 1
    2435      394      525 1
    2436     1070     1636 1
    2437     1337      679 1
    2438     2070     1875 1
    2439     1207     2023 1
    2440      468     1876 1
    2441     2068      128 1
    2442      659      679 1
    2443     1156      689 1
    2444      765      307 1
    2445     1102     1711 1
    2446      418      307 1
    2447      418      761 1
    2448     1268     1264 1
    2449     1436     1793 1
    2450      402     1902 1
    2451     1067      746 1
    2452      419      456 1
    2453      547      774 1
    2454     1908     1290 1
    2455     1057      655 1
    2456     1126     1909 1
    2457      344     1480 1
    2458     1838      640 1
    2459     1266      872 1
    2460      189      163 1
    2461     1358     1366 1
    2462     1326      882 1
    2463     1592     1423 1
    2464     1079      110 1
    2465      514      815 1
    2466     1062     1884 1
    2467     1763     1240 1
    2468     1973     1365 1
    2469      984     2059 1
    2470     1539     1344 1
    2471      567     1666 1
    2472     1289     1234 1
    2473      947     1729 1
    2474     1154     1132 1
    2475      670     1165 1
    2476      894     2081 1
    2477      689      173 1
    2478      831     1667 1
    2479      436      486 1
    2480      435     1033 1
    2481     1833      957 1
    2482      574      535 1
    2483     1329     1945 1
    2484      801      947 1
    2485      889      172 1
    2486      335     2008 1
    2487     1688      637 1
    2488      186     1745 1
    2489      986     1963 1
    2490       93     1284 1
    2491     1131     1613 1
    2492     1195     1169 1
    2493     1267      443 1
    2494     1601     1578 1
    2495     1082      755 1
    2496     1268      918 1
    2497       99     1308 1
    2498      710        4 1
    2499     1041      173 1
    2500     1837     1633 1
    2501     1147     1523 1
    2502     1437     1556 1
    2503      984     1644 1
    2504      934     1885 1
    2505      275     1290 1
    2506      472     2024 1
    2507     1431      492 1
    2508      143     2061 1
    2509       22      485 1
    2510     1642      170 1
    2511     2063      890 1
    2512     2032      959 1
    2513      391      247 1
    2514     1191      289 1
    2515     1002      209 1
    2516      568     2047 1
    2517       31       25 1
    2518     2044     1258 1
    2519      384      976 1
    2520       27     1761 1
    2521       17     1841 1
    2522     1488     1898 1
    2523     1523       55 1
    2524      152     2084 1
    2525     1330     1700 1
    2526     1999     1301 1
    2527     1145     1787 1
    2528      347     1416 1
    2529     1432      362 1
    2530      348     1865 1
    2531     1393      388 1
    2532     1482      309 1
    2533     1138     2013 1
    2534     1006      841 1
    2535      541     1629 1
    2536     1160     1369 1
    2537     1386      195 1
    2538     1105     1788 1
    2539     1483     2086 1
    2540      365      122 1
    2541      918     1462 1
    2542     1316     1177 1
    2543     1225     1609 1
    2544     1193     1836 1
    2545      736      738 1
    2546     1658       62 1
    2547     1347      405 1
    2548     1979      299 1
    2549       14     1306 1
    2550      834     1800 1
    2551     1765      453 1
    2552     1195     1706 1
    2553     1527     1228 1
    2554     1132     1447 1
    2555     1221      944 1
    2556      739      310 1
    2557     1857     1798 1
    2558      330     1944 1
    2559     2072      465 1
    2560      757     1804 1
    2561     1273      872 1
    2562      150      936 1
    2563     1137      326 1
    2564      623     1912 1
    2565      315      967 1
    2566     1080      939 1
    2567      915     1579 1
    2568       40     1957 1
    2569     1581     1907 1
    2570      327     1038 1
    2571      462     1852 1
    2572      750     2105 1
    2573      688     1059 1
    2574     1210     1813 1
    2575      974     2002 1
    2576      336     1551 1
    2577      619       82 1
    2578     1911      882 1
    2579      632     2043 1
    2580     1095      676 1
    2581      625      463 1
    2582      526        5 1
@<TRIPOS>SUBSTRUCTURE
       1 RES             1 RESIDUE    0 **** ROOT      0
