@<TRIPOS>MOLECULE
RES
17226 21066 1 0 1
SMALL
NO_CHARGES
@<TRIPOS>CRYSIN
  150.0000   150.0000    36.7490    90.0000    90.0000    90.0000  1  1
@<TRIPOS>ATOM
       1 O           39.3280    24.2340     3.1580 O             1 RES     
       2 O            8.4580    48.5390     6.1960 O             1 RES     
       3 O            9.9370    34.3450     9.7080 O             1 RES     
       4 O           27.9310    20.9500     2.9650 O             1 RES     
       5 Si          34.0510    21.9090     6.4800 Si            1 RES     
       6 O           31.4160    17.1410     7.9150 O             1 RES     
       7 O            7.4230    25.4710     6.7820 O             1 RES     
       8 O           47.1120     3.1090     5.5400 O             1 RES     
       9 O           32.8980     7.8050     9.9470 O             1 RES     
      10 Si          38.7810    11.9610     4.5220 Si            1 RES     
      11 OS          25.3700     1.5880    12.7280 OS            1 RES     
      12 O           28.2200     7.4620    11.4690 O             1 RES     
      13 O           41.5420    22.2820     9.1930 O             1 RES     
      14 Si           1.2140    26.3900     3.6200 Si            1 RES     
      15 O           32.1660    42.1050     9.0280 O             1 RES     
      16 O           26.2930    46.3710     7.6460 O             1 RES     
      17 O           17.5360    25.3840     7.5700 O             1 RES     
      18 Si          37.4340     4.1390     8.1680 Si            1 RES     
      19 O           35.4360    32.8570     8.7280 O             1 RES     
      20 O           23.7070    24.5910     4.9950 O             1 RES     
      21 O            9.6650    31.9680     5.7910 O             1 RES     
      22 Si          45.4860    22.8860    10.2000 Si            1 RES     
      23 Si          19.9930    18.2280    12.3350 Si            1 RES     
      24 O           24.5250    30.7410     7.9630 O             1 RES     
      25 O           32.6640    41.9310    11.4990 O             1 RES     
      26 O            6.5590    27.3500     5.0100 O             1 RES     
      27 Si           8.9520    33.0600     4.9870 Si            1 RES     
      28 O           40.1130    25.9410     9.7650 O             1 RES     
      29 O           20.6210    37.5380     6.4480 O             1 RES     
      30 Si          24.6920    29.4830     6.9840 Si            1 RES     
      31 Si          19.3940    15.7420     5.6330 Si            1 RES     
      32 O           29.8760    11.7970     6.2890 O             1 RES     
      33 O           37.9360    30.6050     3.1040 O             1 RES     
      34 O           49.3000    43.1650     4.7740 O             1 RES     
      35 O           49.2410    15.4300     8.7790 O             1 RES     
      36 Si          16.0040    25.6960     7.5250 Si            1 RES     
      37 O           10.2360     3.4110     9.6970 O             1 RES     
      38 O           43.4210    28.2730     6.3950 O             1 RES     
      39 O            0.1870    40.6520     3.9740 O             1 RES     
      40 O           11.9330    36.8760     3.0060 O             1 RES     
      41 Si          43.8870     0.3740     7.3530 Si            1 RES     
      42 O           23.3580    12.3080    11.7210 O             1 RES     
      43 Si          25.3870    41.5760    12.4880 Si            1 RES     
      44 O           46.0860    21.2950     7.0170 O             1 RES     
      45 O           21.7340     6.6160     4.3500 O             1 RES     
      46 O           23.6280    38.4180    11.4120 O             1 RES     
      47 O           48.4240    30.3200     6.4430 O             1 RES     
      48 O           14.8410    23.7240    11.1040 O             1 RES     
      49 O           13.8720     7.7270     8.0010 O             1 RES     
      50 O           42.9320    35.6550     5.0210 O             1 RES     
      51 Si          14.9580    22.2990    11.7660 Si            1 RES     
      52 Si           1.3660    23.9370     5.4410 Si            1 RES     
      53 O            2.1070    45.4170     9.4240 O             1 RES     
      54 Si          23.7100    28.9220    12.3920 Si            1 RES     
      55 O           38.9530    35.4330    11.0830 O             1 RES     
      56 O           18.9750    37.1960     8.6150 O             1 RES     
      57 O           20.4090    49.8920     4.6600 O             1 RES     
      58 OS          45.0010    36.9310    13.7540 OS            1 RES     
      59 O           46.3590    38.6730     9.4100 O             1 RES     
      60 Si          30.3630    42.9570     3.6210 Si            1 RES     
      61 Si          47.8950    43.8810     5.0840 Si            1 RES     
      62 O           21.7380    45.4450     8.6830 O             1 RES     
      63 O           29.7260    34.7920    11.3840 O             1 RES     
      64 O           28.0750     5.0820    10.5820 O             1 RES     
      65 Si          24.9300    47.1050     7.6980 Si            1 RES     
      66 O           49.2420    47.3080     4.1190 O             1 RES     
      67 O           42.6700    39.8890    13.3630 O             1 RES     
      68 O           30.4550     7.1310    10.0400 O             1 RES     
      69 Si          23.1700     7.2460     4.4180 Si            1 RES     
      70 O           22.6910    40.0080     9.8390 O             1 RES     
      71 O            9.2430    34.4260     5.6130 O             1 RES     
      72 Si          35.9510    45.0840     7.4200 Si            1 RES     
      73 O           13.0020    14.6690    10.0680 O             1 RES     
      74 Si          22.3030    18.2180     3.4300 Si            1 RES     
      75 O           38.6920    44.6600     9.9650 O             1 RES     
      76 Si           5.3750    36.6310     5.4460 Si            1 RES     
      77 O           31.6610     6.9240     7.6810 O             1 RES     
      78 OS           2.1040    44.4950    11.9170 OS            1 RES     
      79 O           10.2660     3.2190    12.0870 O             1 RES     
      80 O           33.2710    37.6820     4.3090 O             1 RES     
      81 OS           2.5230    37.1640    12.4500 OS            1 RES     
      82 O           34.7990    41.8550    10.2240 O             1 RES     
      83 Si          20.4020    45.1770     4.5950 Si            1 RES     
      84 Si          30.0820    17.9670     7.9450 Si            1 RES     
      85 O           30.5780    43.3520     7.2540 O             1 RES     
      86 O           19.3900    32.4830    10.8440 O             1 RES     
      87 O           38.7970    47.0110    10.9690 O             1 RES     
      88 Si          39.4990    19.3740     8.7080 Si            1 RES     
      89 O           42.9490    38.5760     2.4350 O             1 RES     
      90 Si           3.8240    29.5800     7.9930 Si            1 RES     
      91 O           37.3440     8.4030     7.9400 O             1 RES     
      92 O           15.1020    37.0500     8.0510 O             1 RES     
      93 O            9.6790     3.5510     2.8980 O             1 RES     
      94 O           31.5790    43.9430     3.5960 O             1 RES     
      95 Si          35.8900    12.3490     5.6510 Si            1 RES     
      96 O            4.2640     9.0260     4.7800 O             1 RES     
      97 O           44.0270    15.3980     4.9560 O             1 RES     
      98 OS          38.3090    33.0360    11.9640 OS            1 RES     
      99 Si          32.8510    29.5180    12.2650 Si            1 RES     
     100 O           22.9350    41.4540     7.9210 O             1 RES     
     101 O           30.0370    49.7050     3.3810 O             1 RES     
     102 Si           3.5000    38.7530     4.4320 Si            1 RES     
     103 O           38.2010    10.6540     7.5920 O             1 RES     
     104 O            9.7210    44.1600     8.4230 O             1 RES     
     105 O           38.4650    25.9060     8.1340 O             1 RES     
     106 O            6.0940    16.2190     8.6880 O             1 RES     
     107 Si          15.1630    35.7140     7.3010 Si            1 RES     
     108 OS           7.6490    16.0520    13.1470 OS            1 RES     
     109 O           31.1850     7.8320     5.0870 O             1 RES     
     110 O           24.1550    46.1000     8.5750 O             1 RES     
     111 O            8.2810     6.0230    12.1260 O             1 RES     
     112 O           45.3310    24.4320     9.8760 O             1 RES     
     113 Si          25.6960    37.4590     8.8510 Si            1 RES     
     114 OS           2.2070    13.1450    12.8520 OS            1 RES     
     115 O           49.6470    15.8970     1.3740 O             1 RES     
     116 Si          15.9380    32.7240     8.1010 Si            1 RES     
     117 Si           7.5200    44.1720    12.3700 Si            1 RES     
     118 O           30.4440    23.0700     5.2210 O             1 RES     
     119 O           46.7050    47.7370     5.0130 O             1 RES     
     120 O           11.4490     7.4630     8.7760 O             1 RES     
     121 Si          23.7950     1.6760     6.8390 Si            1 RES     
     122 O            2.8600    30.0720     9.2260 O             1 RES     
     123 Si          21.9800    30.9280     3.3940 Si            1 RES     
     124 O           24.3500    18.9630     7.6670 O             1 RES     
     125 O            8.7010    16.3040     2.2870 O             1 RES     
     126 Si          22.5320    25.0840     4.1390 Si            1 RES     
     127 O            3.2820     9.1310    10.0050 O             1 RES     
     128 Si          18.5560    33.6670    11.4620 Si            1 RES     
     129 O           39.1110    21.6780     2.3750 O             1 RES     
     130 O           17.6690    29.6720     7.1160 O             1 RES     
     131 Si          20.2150     6.4960     4.7090 Si            1 RES     
     132 Si          26.0590    40.8180     5.8490 Si            1 RES     
     133 O           28.9650    38.7850    10.2090 O             1 RES     
     134 O           40.1500    16.6990     2.3940 O             1 RES     
     135 Si          49.4280     0.5340     8.6050 Si            1 RES     
     136 O            4.7720    21.7590     6.4550 O             1 RES     
     137 O           24.2530    33.2980     7.8670 O             1 RES     
     138 Si          10.7020    30.7490     6.1000 Si            1 RES     
     139 O           42.6700     5.6730     5.2900 O             1 RES     
     140 Si          14.2700    49.9640    11.6860 Si            1 RES     
     141 O            6.6100    21.1300    10.0300 O             1 RES     
     142 O           49.4510    11.8250    10.8060 O             1 RES     
     143 O           41.1260    13.8420     9.8870 O             1 RES     
     144 O           45.6810    15.0260     7.0230 O             1 RES     
     145 O           46.7460    26.3010     8.8480 O             1 RES     
     146 O           27.8520    30.1570     5.1630 O             1 RES     
     147 O           14.0080    16.7380     5.3380 O             1 RES     
     148 O           27.0560    41.8310     1.9940 O             1 RES     
     149 Si          13.3490    24.6240     3.2190 Si            1 RES     
     150 O           25.9020    34.8710     4.4290 O             1 RES     
     151 O           20.1230     4.8830     4.5910 O             1 RES     
     152 O           34.1470    15.1210    11.3000 O             1 RES     
     153 Si           1.3730    22.1510     2.9220 Si            1 RES     
     154 O           49.7900    25.9860     3.1710 O             1 RES     
     155 O           32.2150    27.3290     8.7490 O             1 RES     
     156 O           42.4190    13.5680     5.7240 O             1 RES     
     157 O           37.2140     5.2770     9.2580 O             1 RES     
     158 O           40.9980    23.4960     1.5910 O             1 RES     
     159 OS           0.6460    27.9250    13.3760 OS            1 RES     
     160 Si           0.8110    19.1590     9.6580 Si            1 RES     
     161 O           30.5330    18.1760     4.0030 O             1 RES     
     162 O           41.9850    33.4010     8.8860 O             1 RES     
     163 O            6.9590    38.8170    12.1150 O             1 RES     
     164 O           23.5630    28.8290     6.0310 O             1 RES     
     165 Si          36.8960     6.1620    10.4730 Si            1 RES     
     166 OS          30.9060    42.8970    12.8760 OS            1 RES     
     167 O           22.3450    33.7720    10.4280 O             1 RES     
     168 Si          38.7720    49.4470     3.8340 Si            1 RES     
     169 Si          20.6320    28.6790    11.6590 Si            1 RES     
     170 O           29.1060     9.9070     8.0490 O             1 RES     
     171 O            4.3300    16.1090     6.8260 O             1 RES     
     172 Si          46.1970     8.4660     8.6420 Si            1 RES     
     173 O           31.4770    20.9200    10.3250 O             1 RES     
     174 O           23.6740    13.7090     7.1970 O             1 RES     
     175 O           25.7850    16.0530    11.2930 O             1 RES     
     176 Si          25.0720     2.0650    11.2810 Si            1 RES     
     177 O            6.5130    12.3630    10.0980 O             1 RES     
     178 O           31.2430    26.1310     6.4910 O             1 RES     
     179 O           29.5560    43.4330     4.9100 O             1 RES     
     180 O            5.5290    29.6980     4.5780 O             1 RES     
     181 Si          12.1290    29.9390     9.9840 Si            1 RES     
     182 Si          42.9810    42.5610    10.5600 Si            1 RES     
     183 O            0.0220    14.5270     4.1100 O             1 RES     
     184 O           27.5270     6.1070     3.8020 O             1 RES     
     185 O           12.7250     3.7090    12.4850 O             1 RES     
     186 Si           9.4180     2.8310    10.8570 Si            1 RES     
     187 O           31.6600    36.1520    10.5500 O             1 RES     
     188 Si          18.5290    31.0570     7.4200 Si            1 RES     
     189 OS          22.9530    45.1110    10.9490 OS            1 RES     
     190 O           47.5310    28.1790     7.5710 O             1 RES     
     191 O           22.0970     2.9560     3.5790 O             1 RES     
     192 O           23.9750    47.1680     6.4300 O             1 RES     
     193 Si          35.6350     7.7970     5.0950 Si            1 RES     
     194 Si          15.2560    25.1420    10.4270 Si            1 RES     
     195 O           18.6580    35.0890    10.6360 O             1 RES     
     196 OS          20.2660    37.5690    13.8000 OS            1 RES     
     197 O           29.7200    18.0810    12.3670 O             1 RES     
     198 O           26.0000    19.8770     4.2940 O             1 RES     
     199 O           41.0400     2.2550     8.1180 O             1 RES     
     200 Si          26.5050     9.2230     5.5330 Si            1 RES     
     201 O           36.9120    40.4130    10.7990 O             1 RES     
     202 O           20.7340    15.2520     4.9050 O             1 RES     
     203 O           19.4960    18.3400    10.8120 O             1 RES     
     204 O           22.9330     2.9620     7.0930 O             1 RES     
     205 O           46.3160    48.9330    13.3120 O             1 RES     
     206 O           25.5590    23.5770     6.4960 O             1 RES     
     207 O           34.9440    48.6380    11.0810 O             1 RES     
     208 Si          25.5740    19.7440    11.9030 Si            1 RES     
     209 O            0.6750    30.5180    10.5840 O             1 RES     
     210 Si          19.9420     6.1710     7.7720 Si            1 RES     
     211 Si          23.1990    12.0790     3.8050 Si            1 RES     
     212 O           30.8380     5.4450     5.9680 O             1 RES     
     213 O           45.9100     7.5290     7.3860 O             1 RES     
     214 Si           3.6840    12.8230    12.3480 Si            1 RES     
     215 OS          18.8100    44.6700    12.2700 OS            1 RES     
     216 Si          38.0060    11.3040     9.0220 Si            1 RES     
     217 O           20.9740    36.1480     4.3800 O             1 RES     
     218 O           33.5230    45.4890     2.9160 O             1 RES     
     219 O           23.1790    31.3580     2.5010 O             1 RES     
     220 Si           9.2410    45.5480     3.3790 Si            1 RES     
     221 Si          34.3650     5.5360    12.3320 Si            1 RES     
     222 Si          39.6160    25.8090     3.1450 Si            1 RES     
     223 O           28.8550    16.9830     8.2740 O             1 RES     
     224 Si          10.8730    25.4460     9.4090 Si            1 RES     
     225 OS           2.9380    27.3670    13.5110 OS            1 RES     
     226 OS          33.3940    45.2420    13.7960 OS            1 RES     
     227 Si          45.8650    31.8970     2.7980 Si            1 RES     
     228 O           43.3990     5.4610    10.9030 O             1 RES     
     229 O           45.3100    32.5620     6.9560 O             1 RES     
     230 O           21.8170    45.9040     5.1190 O             1 RES     
     231 O           42.0710    47.7170     9.4400 O             1 RES     
     232 Si          35.4420    32.0520     7.3890 Si            1 RES     
     233 O           45.1310    14.1860     9.3770 O             1 RES     
     234 O           13.7230     1.3210    12.2550 O             1 RES     
     235 O           28.4180    12.2310     8.3410 O             1 RES     
     236 O           48.1150     3.6560     3.2300 O             1 RES     
     237 O           24.3630    21.2010     2.9820 O             1 RES     
     238 Si           0.4750    39.2730     4.6870 Si            1 RES     
     239 Si          49.8290    17.2240    12.6160 Si            1 RES     
     240 O           11.8830    42.9360     5.5030 O             1 RES     
     241 O           48.1000    18.5900     5.2710 O             1 RES     
     242 Si          13.5760    45.1310     8.3190 Si            1 RES     
     243 O            7.9420    29.6150     8.5510 O             1 RES     
     244 O           19.4490    16.2870     9.2650 O             1 RES     
     245 O           21.8720    33.0660     6.7000 O             1 RES     
     246 Si          28.1680    32.5160     7.8900 Si            1 RES     
     247 O            9.3260    14.7530     6.8240 O             1 RES     
     248 Si          33.4080    23.7200     8.8770 Si            1 RES     
     249 O           22.0920    20.6210     7.5910 O             1 RES     
     250 O            3.4620     6.4040    10.5250 O             1 RES     
     251 Si          37.3120    24.5400    11.4470 Si            1 RES     
     252 O           26.2140    25.8960    11.8030 O             1 RES     
     253 Si          39.0690    17.2800     3.3630 Si            1 RES     
     254 O           38.6180    34.2620     4.5350 O             1 RES     
     255 Si          37.6040    34.2130     3.3530 Si            1 RES     
     256 O            0.7970    42.5890     7.7990 O             1 RES     
     257 O           22.2110    13.2820     3.8790 O             1 RES     
     258 O            3.3010    42.0190     7.2270 O             1 RES     
     259 O           42.6960    40.5310     3.8590 O             1 RES     
     260 Si          17.0000     5.1450     8.0970 Si            1 RES     
     261 O           47.1890    25.8760     6.4000 O             1 RES     
     262 O           42.6210    18.3830    10.7470 O             1 RES     
     263 O            8.0760    15.1190     4.6190 O             1 RES     
     264 Si          45.0950    38.4250    10.3500 Si            1 RES     
     265 O           45.8150     0.0320     1.4580 O             1 RES     
     266 Si          12.9980    31.8610     7.7030 Si            1 RES     
     267 O           18.4430    18.7220     8.4660 O             1 RES     
     268 O           24.4370    16.7460     6.5860 O             1 RES     
     269 Si          14.9540    12.9100     6.0530 Si            1 RES     
     270 O           14.9650    18.7910     9.9840 O             1 RES     
     271 Si          24.7280    26.1950    11.4530 Si            1 RES     
     272 O           47.3630    32.9210     8.3330 O             1 RES     
     273 O           32.0960    16.7640    11.4900 O             1 RES     
     274 O           34.8860    47.1780    12.9650 O             1 RES     
     275 O           12.7500    15.3170     3.5650 O             1 RES     
     276 O           35.1600    41.7720     5.1760 O             1 RES     
     277 O           46.3020    43.3040     9.1230 O             1 RES     
     278 O           21.4630    14.5980     8.6160 O             1 RES     
     279 O           38.8250    47.9060     3.5560 O             1 RES     
     280 O           33.4650     1.9990     3.7860 O             1 RES     
     281 O           27.3030    14.6550     8.4230 O             1 RES     
     282 O           24.3010    27.5890    11.8080 O             1 RES     
     283 O           18.4060    47.3430    11.6440 O             1 RES     
     284 O            6.4100    19.6400     5.3440 O             1 RES     
     285 OS          19.7470    28.5850    12.9640 OS            1 RES     
     286 Si          48.5780    19.7920     6.0330 Si            1 RES     
     287 Si          13.2120     6.2720     4.4060 Si            1 RES     
     288 Si          38.8670    43.7710     3.9090 Si            1 RES     
     289 O           16.1730    35.9180     6.1790 O             1 RES     
     290 Si          46.9800     2.9410     3.9820 Si            1 RES     
     291 O           16.4210    48.9450     5.2640 O             1 RES     
     292 Si          28.4320     0.9860     9.0180 Si            1 RES     
     293 O            3.7910    19.2340    12.2220 O             1 RES     
     294 Si          37.3810    14.3720     9.2660 Si            1 RES     
     295 O           39.6090    17.1140     4.7570 O             1 RES     
     296 O           18.9850    23.2030     4.9360 O             1 RES     
     297 O           33.3830    29.5890     8.6530 O             1 RES     
     298 Si           6.5040    34.3540     3.6440 Si            1 RES     
     299 O           10.6390    41.7210    12.3230 O             1 RES     
     300 Si          21.8010    23.4750    10.1490 Si            1 RES     
     301 O           32.1880     2.9370    11.0530 O             1 RES     
     302 O           48.2850    37.1040     8.2830 O             1 RES     
     303 O           21.6560    15.2860     2.4880 O             1 RES     
     304 Si          23.6110    42.4730     6.8000 Si            1 RES     
     305 Si          39.1900    24.7630     8.9630 Si            1 RES     
     306 OS          23.5860    47.4960    12.0860 OS            1 RES     
     307 OS          35.6550    44.6830    12.9390 OS            1 RES     
     308 O           38.8090    10.5150     5.0240 O             1 RES     
     309 Si           7.5450    17.4300    12.2700 Si            1 RES     
     310 O           11.9280    10.0130     4.3980 O             1 RES     
     311 O           47.4460    12.9720    12.0550 O             1 RES     
     312 O           16.4350     1.3450     6.4240 O             1 RES     
     313 Si          10.3130    11.8920    10.4020 Si            1 RES     
     314 OS          11.2070    32.3640    13.4470 OS            1 RES     
     315 O           23.7810    46.8420     3.9060 O             1 RES     
     316 OS          32.3080    40.5490    13.5250 OS            1 RES     
     317 Si          14.6130    39.8490    10.8620 Si            1 RES     
     318 Si           9.0190     4.2510     4.0900 Si            1 RES     
     319 O           25.1120    14.6520     5.4390 O             1 RES     
     320 Si          44.0140    36.7140     7.7550 Si            1 RES     
     321 OS          48.1550    10.7840    12.7930 OS            1 RES     
     322 OS          14.5800    10.1050    13.9600 OS            1 RES     
     323 OS          30.2540    15.4520    12.2440 OS            1 RES     
     324 O           15.1430    39.4530     9.4470 O             1 RES     
     325 Si          26.1430     3.1790     5.5820 Si            1 RES     
     326 O            0.4530     3.1480     6.2690 O             1 RES     
     327 O           46.8350    49.3910    10.9860 O             1 RES     
     328 O            4.0590    36.5990     8.4880 O             1 RES     
     329 Si          21.9700    14.8470     4.0010 Si            1 RES     
     330 Si           5.4830    21.8870    10.9520 Si            1 RES     
     331 O           12.9610    16.0130    12.0790 O             1 RES     
     332 Si          18.5110    45.7810    11.1700 Si            1 RES     
     333 OS          26.1120     6.5300    13.1560 OS            1 RES     
     334 O           28.9550    11.6580     3.8450 O             1 RES     
     335 O           16.8570     4.4800     9.5660 O             1 RES     
     336 O           12.2070    31.3180     6.4880 O             1 RES     
     337 Si           3.6610    47.9890     3.2660 Si            1 RES     
     338 O            2.3810    38.3960     9.2630 O             1 RES     
     339 O           16.4770    43.0330     5.4360 O             1 RES     
     340 O            8.4010    37.8400     9.9930 O             1 RES     
     341 Si          35.2360    26.0960     9.8200 Si            1 RES     
     342 OS          41.6370    48.2940    12.0470 OS            1 RES     
     343 O           28.3920    45.5220     9.3080 O             1 RES     
     344 Si           8.7650     9.9060     8.6400 Si            1 RES     
     345 Si          31.1860    40.2060     4.6190 Si            1 RES     
     346 O           33.9620     9.7730    11.3540 O             1 RES     
     347 Si          29.9290    38.9810    11.4220 Si            1 RES     
     348 O           46.4470    45.4640     8.5700 O             1 RES     
     349 O            3.8460    49.6770    12.4230 O             1 RES     
     350 O           11.9350    26.3070    10.1220 O             1 RES     
     351 O           34.7310    37.0780     7.2970 O             1 RES     
     352 O            9.9940    32.7270     3.7510 O             1 RES     
     353 OS          45.7050    12.9940    13.9360 OS            1 RES     
     354 Si          18.4620    19.7870     7.3990 Si            1 RES     
     355 O           11.2240    35.5340     6.4810 O             1 RES     
     356 O           43.9110    10.6470     6.2750 O             1 RES     
     357 O           45.5200    36.9650     7.4450 O             1 RES     
     358 O           42.3600    47.1630     6.9220 O             1 RES     
     359 O           21.7830    13.9840    12.3470 O             1 RES     
     360 Si          38.2540    43.6100     8.9210 Si            1 RES     
     361 OS          17.5590    27.3140    12.9220 OS            1 RES     
     362 O            3.3950    11.3600    11.7150 O             1 RES     
     363 Si           6.1610     4.5190     2.9570 Si            1 RES     
     364 Si          35.9990     4.7990     5.4630 Si            1 RES     
     365 O           40.4460     8.8940    11.2490 O             1 RES     
     366 Si          36.3780     8.7640     9.1110 Si            1 RES     
     367 Si           1.8180    27.6390    12.3530 Si            1 RES     
     368 OS          47.8010    37.1470    12.8070 OS            1 RES     
     369 O           11.1920    45.1340    13.1630 O             1 RES     
     370 O           48.1120    47.4380    10.4120 O             1 RES     
     371 O           39.5130    20.8610     8.2070 O             1 RES     
     372 O           26.4280    34.1630    11.4740 O             1 RES     
     373 Si          33.3770     3.5300     3.4640 Si            1 RES     
     374 O           36.1180    48.2970     8.6890 O             1 RES     
     375 O           46.7490    17.9500     3.0500 O             1 RES     
     376 O           41.6860    42.9810     6.6740 O             1 RES     
     377 O           37.4760    12.5040     5.3120 O             1 RES     
     378 Si          24.7900    13.2300     6.2040 Si            1 RES     
     379 OS          38.1530     4.6200    13.3710 OS            1 RES     
     380 O            9.6770    32.6350    11.3050 O             1 RES     
     381 Si          33.9690    22.8690     3.4780 Si            1 RES     
     382 O           43.9820    37.9620     9.3120 O             1 RES     
     383 Si          12.2740    34.9140     7.4100 Si            1 RES     
     384 O           25.0010    18.4920    11.1670 O             1 RES     
     385 O            2.7600    24.2130    10.4020 O             1 RES     
     386 O           42.9580    26.1660    11.8200 O             1 RES     
     387 O           45.1440    14.4450    11.7480 O             1 RES     
     388 Si          40.0110    39.8830     8.6920 Si            1 RES     
     389 OS           4.8870    30.6080    12.7110 OS            1 RES     
     390 O           36.7400    29.8300     5.2550 O             1 RES     
     391 Si          16.6150    44.7830     8.8650 Si            1 RES     
     392 O           14.1100    11.8590     9.6930 O             1 RES     
     393 O            2.0850    44.1560     6.4310 O             1 RES     
     394 Si          39.0470    45.4520    11.2560 Si            1 RES     
     395 Si          46.1120    42.6170    10.5030 Si            1 RES     
     396 Si          15.9470     2.3680     7.5480 Si            1 RES     
     397 O            9.2800    23.5000     7.5290 O             1 RES     
     398 OS          40.7000    34.4120    12.2590 OS            1 RES     
     399 OS          37.3970    49.2820    10.3440 OS            1 RES     
     400 O           27.2990     9.9210     4.3170 O             1 RES     
     401 O           47.5000    17.2100     9.6140 O             1 RES     
     402 O           10.7770    40.0520     8.7900 O             1 RES     
     403 Si          24.9320    24.8970     5.9010 Si            1 RES     
     404 Si          46.2280    36.8130    12.7060 Si            1 RES     
     405 OS          17.5710     7.1020    13.6460 OS            1 RES     
     406 O            3.9580    31.7320     3.9260 O             1 RES     
     407 O           30.0340    48.1820     5.4990 O             1 RES     
     408 Si           2.3960     0.3410    12.1610 Si            1 RES     
     409 Si           1.3740    24.8670    10.7920 Si            1 RES     
     410 O           32.8560    14.0160     5.4360 O             1 RES     
     411 O            5.0360    32.8140    11.2680 O             1 RES     
     412 O            4.3950     1.0660     5.6080 O             1 RES     
     413 Si          11.4700    14.6680     9.6650 Si            1 RES     
     414 O           45.4260    12.4360     7.7160 O             1 RES     
     415 Si          39.5160    33.9090    11.3150 Si            1 RES     
     416 O           42.7260    45.9040    11.9400 O             1 RES     
     417 OS          21.7830     5.7500    13.3060 OS            1 RES     
     418 O            3.4140    40.7410     9.3500 O             1 RES     
     419 O           34.3490    32.3610     3.7950 O             1 RES     
     420 OS           4.0670    45.7170    13.0380 OS            1 RES     
     421 O           16.5320    25.6030    11.2150 O             1 RES     
     422 O            8.3430    40.2150     9.8420 O             1 RES     
     423 O            4.0360    25.3720     8.7120 O             1 RES     
     424 O           30.6800    45.8030     9.3590 O             1 RES     
     425 O           10.0900    10.7120     6.1550 O             1 RES     
     426 O           19.1940    17.1920     5.2050 O             1 RES     
     427 O           37.1160    48.2080    12.3700 O             1 RES     
     428 Si          11.3670    16.3290    12.1810 Si            1 RES     
     429 O           35.5170    49.9290     1.5800 O             1 RES     
     430 O            3.1960    13.4610     3.7560 O             1 RES     
     431 O            4.0060    30.3250     6.5690 O             1 RES     
     432 Si          39.5480    34.3190     5.9030 Si            1 RES     
     433 Si          19.5940    18.6870     4.7920 Si            1 RES     
     434 OS          15.5400    11.8900    12.5810 OS            1 RES     
     435 Si           3.2760    22.0430     6.8940 Si            1 RES     
     436 Si          16.4430     3.1290    10.4140 Si            1 RES     
     437 O           34.7450    20.4650     6.8190 O             1 RES     
     438 O           42.7410    49.4860     7.9210 O             1 RES     
     439 O            9.6600    25.8890     8.2980 O             1 RES     
     440 Si          14.1900    40.4600     5.9330 Si            1 RES     
     441 O            2.1890     7.9920     5.7940 O             1 RES     
     442 OS          16.4940    21.9160    12.0070 OS            1 RES     
     443 OS           8.7360    23.7110    12.1360 OS            1 RES     
     444 O            9.6740     3.0890     7.3500 O             1 RES     
     445 Si          45.4850     2.3080     9.1260 Si            1 RES     
     446 O           34.5530     1.7420     7.1130 O             1 RES     
     447 Si          47.6950    46.8240     4.1620 Si            1 RES     
     448 O            9.0940    31.8780     9.0570 O             1 RES     
     449 O           32.8540    11.6640    10.2560 O             1 RES     
     450 O           39.9370    12.6720     5.1830 O             1 RES     
     451 O           42.7870     7.5880     3.9020 O             1 RES     
     452 OS          41.5110    44.6970    13.8950 OS            1 RES     
     453 Si           3.5110    26.4870     7.6910 Si            1 RES     
     454 O           24.8100    40.6180     2.1530 O             1 RES     
     455 O           28.0830    19.4000    14.1250 O             1 RES     
     456 Si          45.3360    48.4560     5.2530 Si            1 RES     
     457 O           15.0890    16.2570    10.7830 O             1 RES     
     458 O            1.7470    25.2300     4.6450 O             1 RES     
     459 O           20.2430    49.6870    11.9420 O             1 RES     
     460 Si           1.9550    42.6290     6.7790 Si            1 RES     
     461 Si          21.5380     3.5220     7.4470 Si            1 RES     
     462 O           17.2980    45.0130    10.2930 O             1 RES     
     463 O           14.1450    39.2150     6.8920 O             1 RES     
     464 O           10.4990    19.3050     7.6740 O             1 RES     
     465 Si          14.9070     7.2060     6.9330 Si            1 RES     
     466 Si          28.6810    25.7310     9.3460 Si            1 RES     
     467 O           35.3300    30.3750     2.9760 O             1 RES     
     468 Si           8.6830    43.2050     7.6990 Si            1 RES     
     469 O           14.0870    29.7210     3.3030 O             1 RES     
     470 O           33.0820    22.8120    10.2330 O             1 RES     
     471 O           47.5190    36.2220     3.8790 O             1 RES     
     472 Si          28.5250     6.5820    10.1990 Si            1 RES     
     473 Si          47.4500    17.4220     4.3660 Si            1 RES     
     474 O           28.1610    15.8470     6.3670 O             1 RES     
     475 OS           1.1650    22.8170    14.2730 OS            1 RES     
     476 O           44.8110     0.9100     8.5730 O             1 RES     
     477 O           18.5750    27.3960     6.6910 O             1 RES     
     478 O           26.1090     3.3020     3.9990 O             1 RES     
     479 Si          42.6060    34.7230     9.4340 Si            1 RES     
     480 Si          45.3720    10.9610     7.0310 Si            1 RES     
     481 O           22.5860    29.5690     3.9380 O             1 RES     
     482 Si          40.2970    31.3540     6.4800 Si            1 RES     
     483 Si           6.0960    33.9830    10.8440 Si            1 RES     
     484 O           12.7440    30.9830     8.8940 O             1 RES     
     485 O           26.2930    30.5420     3.2220 O             1 RES     
     486 O            7.8820    24.5560     9.3200 O             1 RES     
     487 O           27.0360    22.2950     8.3600 O             1 RES     
     488 O           25.2950     0.7040    10.3780 O             1 RES     
     489 Si          24.9280    17.5040     7.8380 Si            1 RES     
     490 O           48.6180     4.1440    10.7340 O             1 RES     
     491 O           25.6520    28.5460     7.8160 O             1 RES     
     492 O           19.8470    24.9840     6.4890 O             1 RES     
     493 Si          41.6370    12.8030    10.9200 Si            1 RES     
     494 Si          35.3520     1.3890    12.1150 Si            1 RES     
     495 Si          46.8970    37.7350     7.7620 Si            1 RES     
     496 O           26.2440     7.4510     2.2640 O             1 RES     
     497 O            5.3780    35.8640     6.8210 O             1 RES     
     498 O           45.1740    27.8150     2.8680 O             1 RES     
     499 Si          43.8770    27.3760    11.5510 Si            1 RES     
     500 Si          12.5270     8.5340     8.2720 Si            1 RES     
     501 O            3.5620    28.0480     7.7900 O             1 RES     
     502 O            5.2150    22.8920     2.7460 O             1 RES     
     503 O           46.5290    22.0670     9.2400 O             1 RES     
     504 Si          13.1480    15.3560     5.0550 Si            1 RES     
     505 O           24.9450    29.7810    11.9010 O             1 RES     
     506 O            0.0590    17.7840     9.3110 O             1 RES     
     507 O           19.1170    13.8090     9.2550 O             1 RES     
     508 O            4.0670    37.3420     4.9070 O             1 RES     
     509 O           36.9140    10.2500     9.4460 O             1 RES     
     510 O           35.5640     6.3480     5.5660 O             1 RES     
     511 OS          29.1860    38.1350    12.6570 OS            1 RES     
     512 Si          31.8730    37.3300     3.6020 Si            1 RES     
     513 O           42.7740     3.8650     8.6890 O             1 RES     
     514 O           49.9610    33.5230     2.2830 O             1 RES     
     515 O           36.2550    26.7060     8.7730 O             1 RES     
     516 Si          14.0130    15.1700    11.1740 Si            1 RES     
     517 OS           3.7870    16.7630    12.8830 OS            1 RES     
     518 Si          48.5450     5.0490    12.0960 Si            1 RES     
     519 O           40.6880    22.2130     4.0540 O             1 RES     
     520 O           14.5790    32.1970     7.4600 O             1 RES     
     521 O           40.8770    38.5600     8.8240 O             1 RES     
     522 O           24.8340    43.0310     2.6420 O             1 RES     
     523 Si          30.0510    19.2360     5.0320 Si            1 RES     
     524 O           32.2550     8.4950     2.8570 O             1 RES     
     525 O           45.1300    32.9420     1.8010 O             1 RES     
     526 Si           6.2410    43.4290     9.5200 Si            1 RES     
     527 Si          26.1320    27.2990     4.2450 Si            1 RES     
     528 O           39.7030    43.2250     8.3650 O             1 RES     
     529 O            8.5980    46.3720     2.2240 O             1 RES     
     530 Si          34.6490     3.1510     7.7220 Si            1 RES     
     531 O           15.1550    11.3100     5.9300 O             1 RES     
     532 Si           5.3720    10.0700     4.4590 Si            1 RES     
     533 O           42.3490     7.4910    12.1660 O             1 RES     
     534 O           15.4210    40.4660    12.0290 O             1 RES     
     535 O            5.0060     4.4480     4.0530 O             1 RES     
     536 O           19.4280    45.2850     5.8050 O             1 RES     
     537 O           44.4440    46.5930    10.0370 O             1 RES     
     538 O           49.3310    32.3570     9.5320 O             1 RES     
     539 O           30.1120    26.0840     8.9200 O             1 RES     
     540 O           10.4160     1.0990     2.8170 O             1 RES     
     541 O            5.6430    34.8800     9.6260 O             1 RES     
     542 O           10.6130    29.6900     9.5080 O             1 RES     
     543 O           38.9430    30.5190     6.3560 O             1 RES     
     544 O           10.5100     8.1880     5.4640 O             1 RES     
     545 O           18.0080    49.7870    12.4920 O             1 RES     
     546 O           29.9750    18.5390     6.4630 O             1 RES     
     547 Si          43.5010     6.3350    12.2980 Si            1 RES     
     548 O           31.0460    33.8030     5.5130 O             1 RES     
     549 O            8.9270    11.8520    11.1040 O             1 RES     
     550 O           22.6540     0.6510     6.3860 O             1 RES     
     551 O           45.1230    32.2190     9.7350 O             1 RES     
     552 O           15.4250     8.6330     6.4840 O             1 RES     
     553 O           24.3040    33.2740     3.2250 O             1 RES     
     554 O           49.8890    13.0660     8.7600 O             1 RES     
     555 Si           8.1590    11.0630     5.8820 Si            1 RES     
     556 Si           9.7230     6.6800    12.0750 Si            1 RES     
     557 Si          28.4790     8.4120     7.7260 Si            1 RES     
     558 Si           0.5120     7.5370    12.0020 Si            1 RES     
     559 O            9.6710     5.6550     4.5980 O             1 RES     
     560 O            0.6430    46.6160     2.2410 O             1 RES     
     561 O           47.4550    13.8010     8.3070 O             1 RES     
     562 O           18.8750    25.6890    11.5620 O             1 RES     
     563 Si           9.6420    29.2860     3.6580 Si            1 RES     
     564 O            6.7420    27.7270     7.4510 O             1 RES     
     565 Si           7.3690    11.2960    10.8940 Si            1 RES     
     566 Si          30.6730    32.5360     9.5370 Si            1 RES     
     567 O           12.3410    33.3180     7.6750 O             1 RES     
     568 Si           5.5320    36.0130     8.4250 Si            1 RES     
     569 Si          23.0290    43.0570    11.1760 Si            1 RES     
     570 Si          40.9590     8.1710     7.5530 Si            1 RES     
     571 OS          19.6480    48.2890    13.7740 OS            1 RES     
     572 O           34.4150    22.6970     5.0520 O             1 RES     
     573 O           21.5930     3.0260     9.0560 O             1 RES     
     574 Si          35.2580    14.0110    11.5060 Si            1 RES     
     575 O           15.8700    32.0780     9.6110 O             1 RES     
     576 O           27.1660    18.1990     2.9840 O             1 RES     
     577 O            2.9420    29.6550     4.5650 O             1 RES     
     578 Si          41.6730    43.7280     5.2710 Si            1 RES     
     579 O           39.1920     0.5770     7.9150 O             1 RES     
     580 O           12.7510    19.8360     9.1320 O             1 RES     
     581 O           21.9460    42.2760    10.3200 O             1 RES     
     582 O           14.1980    38.2730     2.9000 O             1 RES     
     583 O           22.6260    36.9100    13.1670 O             1 RES     
     584 O           29.3360    32.1020     8.8840 O             1 RES     
     585 O           49.7930    10.4860     8.6050 O             1 RES     
     586 O           26.2920    12.6820     9.6340 O             1 RES     
     587 O            9.8200    25.0990    10.5220 O             1 RES     
     588 Si          27.4390    19.6000     3.5680 Si            1 RES     
     589 O            6.6230    14.8530     6.6910 O             1 RES     
     590 O            8.6230    49.0540    10.4420 O             1 RES     
     591 O           44.8180    26.8060    10.4470 O             1 RES     
     592 O           11.7380     9.5000     1.6330 O             1 RES     
     593 O           47.2400    46.8150     2.7000 O             1 RES     
     594 O           34.5170    24.8560     9.2050 O             1 RES     
     595 O           20.2360     9.1000    10.6340 O             1 RES     
     596 Si          25.7150    41.7100     2.8710 Si            1 RES     
     597 O           34.9960    19.4610     9.2060 O             1 RES     
     598 Si          41.4990    19.5180    11.1150 Si            1 RES     
     599 Si          15.2730    10.2900    12.5260 Si            1 RES     
     600 O           36.2120    18.2560     7.4380 O             1 RES     
     601 O           29.3970    36.5730     9.2700 O             1 RES     
     602 O            5.0300    23.2810    10.2570 O             1 RES     
     603 Si           0.3920    42.2210     4.1890 Si            1 RES     
     604 O            2.2260    26.4020     2.4270 O             1 RES     
     605 O           49.4230    18.8260    12.6940 O             1 RES     
     606 O           27.1160    27.9850     5.1480 O             1 RES     
     607 Si           8.2650    40.9430     4.4180 Si            1 RES     
     608 O           41.1300    22.0980     6.6650 O             1 RES     
     609 O           45.5570    31.9600     4.3400 O             1 RES     
     610 O            0.1660    19.6860     6.1490 O             1 RES     
     611 Si          33.2720     8.2920    11.3850 Si            1 RES     
     612 O           22.7000     0.6170     4.0170 O             1 RES     
     613 O           13.0960    47.7250     5.9260 O             1 RES     
     614 Si          22.7790     1.7000     2.8520 Si            1 RES     
     615 O           16.3630    13.3470     5.6630 O             1 RES     
     616 O           30.9870    48.2450    10.0420 O             1 RES     
     617 O           37.2390    49.7590     3.5030 O             1 RES     
     618 Si          30.8900    16.7310     3.3720 Si            1 RES     
     619 O           26.4990    44.3450     9.2110 O             1 RES     
     620 O           49.2220    26.2600     7.9750 O             1 RES     
     621 OS           3.4010    39.1840    11.4160 OS            1 RES     
     622 O           33.9070    31.6450     7.3760 O             1 RES     
     623 O           43.4510    15.8270    10.1300 O             1 RES     
     624 Si          46.0430    25.0580     5.6030 Si            1 RES     
     625 O            1.8810    26.1950     7.7000 O             1 RES     
     626 O           17.3560     2.2180    11.3970 O             1 RES     
     627 O            7.1550    17.3080     4.0380 O             1 RES     
     628 Si          42.4350    10.2010     5.9260 Si            1 RES     
     629 Si          40.6900     3.0210    11.3890 Si            1 RES     
     630 O           19.9280    29.8800    10.9250 O             1 RES     
     631 O           19.4570    20.9430     7.8900 O             1 RES     
     632 O           10.7040    13.2600     9.7220 O             1 RES     
     633 Si           0.4770     1.6020     5.9420 Si            1 RES     
     634 O            9.4100     1.3120    10.7100 O             1 RES     
     635 Si          18.7360    17.6360     9.5480 Si            1 RES     
     636 O            5.7520    47.8330    12.9800 O             1 RES     
     637 O           19.8340     7.1440     8.9810 O             1 RES     
     638 Si          18.1230     8.5540     3.6600 Si            1 RES     
     639 Si           8.9940    33.1040    10.0430 Si            1 RES     
     640 O           35.6350    37.2760     4.9160 O             1 RES     
     641 O           43.9320    30.7370     6.0400 O             1 RES     
     642 Si          10.3410    36.8300     3.1460 Si            1 RES     
     643 O           30.0060    34.1070    13.8750 O             1 RES     
     644 OS          33.7480    33.1240    13.3250 OS            1 RES     
     645 Si           7.3310    43.7630     4.9050 Si            1 RES     
     646 O           12.4480    23.4040     3.5910 O             1 RES     
     647 Si          11.1820    20.0760     8.8680 Si            1 RES     
     648 Si          26.8970    32.7770    12.0530 Si            1 RES     
     649 O           31.1770    38.7570     3.8720 O             1 RES     
     650 O           42.7610    36.9040     6.8720 O             1 RES     
     651 O            0.1790    45.8030    11.0080 O             1 RES     
     652 O           14.9690    39.8680     4.7060 O             1 RES     
     653 O            9.7750    30.5060     2.5650 O             1 RES     
     654 Si          26.2080    35.7160    11.4330 Si            1 RES     
     655 O           33.8200     1.8110    12.2470 O             1 RES     
     656 O           32.2410    24.6310     8.4590 O             1 RES     
     657 O           44.9250     6.9980    12.2900 O             1 RES     
     658 Si          10.0470     6.9750     9.0140 Si            1 RES     
     659 O            4.9290    13.9990     8.3470 O             1 RES     
     660 Si          23.0970    34.0080     6.9800 Si            1 RES     
     661 O           35.3680    49.2480     6.6070 O             1 RES     
     662 O           38.6330     3.1870     8.2330 O             1 RES     
     663 O           24.3640    25.9410     9.8980 O             1 RES     
     664 Si           1.3860     4.4330     6.3760 Si            1 RES     
     665 O           36.0720    25.4030    10.9870 O             1 RES     
     666 Si          33.3970     0.4560     4.1020 Si            1 RES     
     667 O           47.7770    45.4010     4.5940 O             1 RES     
     668 O           49.6460     0.9140     7.0600 O             1 RES     
     669 Si          49.7490    42.7510     8.8430 Si            1 RES     
     670 O           47.7090    20.8010    12.2820 O             1 RES     
     671 O           21.0710     5.0660     7.7670 O             1 RES     
     672 Si          17.6200     8.2770    12.5210 Si            1 RES     
     673 O           23.8990     8.0890     8.4830 O             1 RES     
     674 O           44.9940     6.8110     5.0230 O             1 RES     
     675 O           38.3840    27.7090     9.6910 O             1 RES     
     676 Si           2.3000    49.5910     9.1770 Si            1 RES     
     677 O           11.0760    17.9080    12.0650 O             1 RES     
     678 Si           2.4870    45.5200     5.7490 Si            1 RES     
     679 O            5.1070    13.1130     2.0220 O             1 RES     
     680 O           17.3130    17.3870    10.0950 O             1 RES     
     681 O           38.8030    18.8680     3.1010 O             1 RES     
     682 O            6.2230     5.3790     1.6200 O             1 RES     
     683 O           33.8930    37.3990    11.2720 O             1 RES     
     684 OS          35.5880    37.9490    13.8270 OS            1 RES     
     685 OS           5.7350    22.1460    12.4840 OS            1 RES     
     686 Si          30.0550    20.4620     9.8690 Si            1 RES     
     687 O            6.6910    21.9270     4.9560 O             1 RES     
     688 O           17.7340    21.6430     3.5230 O             1 RES     
     689 O           19.7000    45.8050    10.1940 O             1 RES     
     690 O           21.0350    10.2870     8.9720 O             1 RES     
     691 Si           0.3040    11.6260     9.5100 Si            1 RES     
     692 Si          47.8920    39.8850     5.9730 Si            1 RES     
     693 Si          25.8660    44.0270    10.5700 Si            1 RES     
     694 O            3.1940     0.0020     7.9500 O             1 RES     
     695 O           33.6470    34.4260     4.8550 O             1 RES     
     696 Si          30.7270    42.4020     8.4770 Si            1 RES     
     697 Si          34.7700    37.8690     3.8180 Si            1 RES     
     698 O            0.9940    10.8450     2.6310 O             1 RES     
     699 O           29.2810    20.1280    11.1720 O             1 RES     
     700 O           18.3850    35.8390     4.7270 O             1 RES     
     701 Si          45.2900    25.8680     9.3100 Si            1 RES     
     702 Si          42.5050    22.3130    10.4510 Si            1 RES     
     703 Si          15.7320    29.5360     3.7050 Si            1 RES     
     704 Si           9.6690    47.8430     5.4930 Si            1 RES     
     705 O           12.3740    48.9220     8.1810 O             1 RES     
     706 O           24.6360     0.9360     7.9300 O             1 RES     
     707 O           19.8080     3.0050     3.2320 O             1 RES     
     708 O           35.4430     0.0010    12.9260 O             1 RES     
     709 O            6.8130    27.9240     9.9120 O             1 RES     
     710 O           36.6000    38.8690     6.7020 O             1 RES     
     711 Si          10.1060    19.0830    11.7060 Si            1 RES     
     712 O           19.5560    15.3870     7.1320 O             1 RES     
     713 O           13.4780    47.4240     3.3610 O             1 RES     
     714 OS          33.1620    11.7520    13.1050 OS            1 RES     
     715 O           10.6930    26.6800     1.2410 O             1 RES     
     716 O           22.8730    22.8310    11.1670 O             1 RES     
     717 O           11.8470    21.1590     4.2940 O             1 RES     
     718 Si          21.9760    12.3940    12.3550 Si            1 RES     
     719 O           12.8560     9.6200     9.3420 O             1 RES     
     720 Si          15.5080    38.7700     3.6850 Si            1 RES     
     721 O           37.2780    42.6790     9.7680 O             1 RES     
     722 O            8.5470    10.3990     4.4330 O             1 RES     
     723 O            4.3780    46.6300     8.9120 O             1 RES     
     724 O           29.9050    45.6210     6.1860 O             1 RES     
     725 Si          33.6080    14.0500     6.7690 Si            1 RES     
     726 O            6.9040    14.7780     2.4800 O             1 RES     
     727 O           17.7290    46.9900     5.8550 O             1 RES     
     728 O           13.0630     2.0570     5.8520 O             1 RES     
     729 O           14.9550    20.6690     8.2220 O             1 RES     
     730 O           26.1070    41.4050     4.3750 O             1 RES     
     731 O           26.7350    26.8440     2.9100 O             1 RES     
     732 O           30.0560     2.9350     5.7890 O             1 RES     
     733 O           45.2980    21.2120     4.8160 O             1 RES     
     734 O            9.9770    10.8910     9.1250 O             1 RES     
     735 Si          15.7720    32.3240    11.1840 Si            1 RES     
     736 O           25.9570    32.4380     4.9530 O             1 RES     
     737 O           49.6260    38.0500     4.0950 O             1 RES     
     738 Si          27.7560    22.5190     3.0090 Si            1 RES     
     739 O            6.1310    18.0340    12.6980 O             1 RES     
     740 Si          29.6580    12.5070     4.9570 Si            1 RES     
     741 Si          20.6900     3.4160     4.4270 Si            1 RES     
     742 O           18.0140    37.6140     6.4480 O             1 RES     
     743 Si           7.4400    49.6480     6.7860 Si            1 RES     
     744 O           11.4600    42.1930     3.2080 O             1 RES     
     745 O            7.4840    42.2850     4.2520 O             1 RES     
     746 O           20.4090    41.3470     8.5420 O             1 RES     
     747 O           27.7690    15.8050     3.7780 O             1 RES     
     748 O           20.8050    22.5490     6.6200 O             1 RES     
     749 O           47.1940     9.1690     3.9050 O             1 RES     
     750 OS          43.1990    32.2580    11.8910 OS            1 RES     
     751 OS           2.5250     1.7930    12.7490 OS            1 RES     
     752 O           15.8720    31.1240     3.5680 O             1 RES     
     753 OS          36.9670    23.0980    12.0190 OS            1 RES     
     754 O           24.6860     5.7720     8.6550 O             1 RES     
     755 Si           3.3320    17.0320     2.8190 Si            1 RES     
     756 O           46.1960    19.5610     9.2260 O             1 RES     
     757 O            4.2990    11.6510     9.3740 O             1 RES     
     758 Si          43.9040    20.4480     4.8120 Si            1 RES     
     759 O           24.8680    35.8760    12.2940 O             1 RES     
     760 O           23.6580    18.9010     3.6840 O             1 RES     
     761 Si          14.1220    37.2970    12.4430 Si            1 RES     
     762 Si          48.3240     3.2150     9.4960 Si            1 RES     
     763 O            8.7600    45.0380    12.2370 O             1 RES     
     764 Si          35.3480    34.2110     9.5120 Si            1 RES     
     765 Si          47.0210     0.0510    12.4420 Si            1 RES     
     766 O           19.9310    33.8980     5.2210 O             1 RES     
     767 O            7.6010    34.5360     2.5650 O             1 RES     
     768 O           15.1770    44.2300     2.7320 O             1 RES     
     769 O           41.9330    37.9030     4.7360 O             1 RES     
     770 Si           6.2890    17.4690     9.5750 Si            1 RES     
     771 O           25.4360    11.1810    11.7760 O             1 RES     
     772 O           10.2860     1.4390     5.2360 O             1 RES     
     773 O           23.4720    43.8750     7.4750 O             1 RES     
     774 O            6.0160    44.9060     9.1190 O             1 RES     
     775 Si          12.5860     9.9290     3.0050 Si            1 RES     
     776 O            2.3750    15.4810     5.2860 O             1 RES     
     777 Si           5.0570    13.0090     9.6470 Si            1 RES     
     778 O           18.5420     5.3050     7.9260 O             1 RES     
     779 O           48.6410    43.7890     8.4790 O             1 RES     
     780 O           11.8310    30.9040    11.1600 O             1 RES     
     781 O           35.0670    13.4710     6.3520 O             1 RES     
     782 Si          42.0050    38.9920     3.5840 Si            1 RES     
     783 O            8.0640    40.0100     3.0870 O             1 RES     
     784 Si          28.7100    37.9400     8.8920 Si            1 RES     
     785 Si           1.4570     7.3840     7.0950 Si            1 RES     
     786 O           19.5950    31.6930     6.4870 O             1 RES     
     787 Si          20.2910    10.6330    10.3250 Si            1 RES     
     788 O           49.4830     9.5720     4.3120 O             1 RES     
     789 Si          49.2360    30.9390    10.2300 Si            1 RES     
     790 O           29.8460    41.2250     8.0550 O             1 RES     
     791 Si          19.0220    25.9820     7.4110 Si            1 RES     
     792 O           23.4690    13.3370     9.5400 O             1 RES     
     793 Si          23.9240    24.9980     8.7160 Si            1 RES     
     794 OS          33.2710    37.9530    13.2690 OS            1 RES     
     795 OS          22.4530    21.1830    13.0020 OS            1 RES     
     796 O           25.8540    25.8150     5.0220 O             1 RES     
     797 O           40.4720    31.4740     8.0220 O             1 RES     
     798 Si          49.0790     9.2880     7.9830 Si            1 RES     
     799 OS           6.2560     6.2770    13.5190 OS            1 RES     
     800 Si          34.2060    40.7980     4.4520 Si            1 RES     
     801 O           38.6100    37.7160     3.1690 O             1 RES     
     802 Si           7.0770    20.2490     8.8390 Si            1 RES     
     803 Si          48.9090    46.5840    11.4290 Si            1 RES     
     804 O           38.3370    26.5730     2.7100 O             1 RES     
     805 Si          34.5520     9.9310     7.0270 Si            1 RES     
     806 Si          20.0360    31.2220    10.1190 Si            1 RES     
     807 O            2.8930    22.2920     2.5400 O             1 RES     
     808 Si          27.6670    16.0710     7.8400 Si            1 RES     
     809 O           28.8060    13.8260     5.0430 O             1 RES     
     810 Si          24.8180    12.7050    10.9700 Si            1 RES     
     811 Si          48.9160    33.1910     8.2340 Si            1 RES     
     812 Si          19.3220    38.0950    12.5930 Si            1 RES     
     813 Si           1.9380    35.8990    11.6940 Si            1 RES     
     814 O           45.7460    37.2740    11.2740 O             1 RES     
     815 O           41.7790    30.2140    12.0810 O             1 RES     
     816 OS           9.6630    30.5690    12.2770 OS            1 RES     
     817 Si          19.9030    14.9890     8.5670 Si            1 RES     
     818 O           25.7710     4.4830     6.4720 O             1 RES     
     819 OS          45.7780    22.3830    11.6510 OS            1 RES     
     820 O           48.9850    32.2290     4.6010 O             1 RES     
     821 Si          37.7750    39.8480     6.4840 Si            1 RES     
     822 O            8.1810     1.0180     6.6000 O             1 RES     
     823 O            7.9860     9.8280     2.0970 O             1 RES     
     824 Si          29.5330    33.3360     5.4390 Si            1 RES     
     825 O           46.2350    23.4670     5.7550 O             1 RES     
     826 Si          17.2150    28.3100     6.4770 Si            1 RES     
     827 O           23.2530     7.7300     5.9480 O             1 RES     
     828 O           20.2230    41.7250     6.0320 O             1 RES     
     829 Si          14.1060     2.9270    12.3560 Si            1 RES     
     830 O           19.4250    26.0820     8.9530 O             1 RES     
     831 Si           7.2080    48.9900     9.7760 Si            1 RES     
     832 OS          13.0180    37.7460    13.3970 OS            1 RES     
     833 Si          49.0280    16.6680     9.7360 Si            1 RES     
     834 O           38.7140    39.7180     7.7470 O             1 RES     
     835 Si          30.7840    46.8420     5.9520 Si            1 RES     
     836 O           10.4830    29.8580     4.8470 O             1 RES     
     837 O           43.3200    41.9460     1.6670 O             1 RES     
     838 Si          18.2410    12.9120    10.1490 Si            1 RES     
     839 O           10.7840    43.1810    10.3760 O             1 RES     
     840 O           42.2450    42.8690     9.2390 O             1 RES     
     841 Si          28.5000    22.7930     8.3570 Si            1 RES     
     842 O            4.2370    21.0310    10.8790 O             1 RES     
     843 O           31.8450     8.4730    11.9550 O             1 RES     
     844 O           44.0220    22.2570     9.9290 O             1 RES     
     845 Si          39.1410    49.3650     6.8780 Si            1 RES     
     846 OS          10.8590    15.6080    13.4570 OS            1 RES     
     847 Si           5.3790     0.2450     4.5480 Si            1 RES     
     848 O            8.0870    10.3600     7.2540 O             1 RES     
     849 O           29.9120    43.3700     9.5960 O             1 RES     
     850 Si          43.3470    17.3420     9.7490 Si            1 RES     
     851 O           21.2180    38.5560     4.1250 O             1 RES     
     852 Si          46.2780    18.2610    10.0530 Si            1 RES     
     853 O           19.3690    39.5920     7.2420 O             1 RES     
     854 O           47.3990    13.5140     4.6950 O             1 RES     
     855 Si          29.8150    33.5000    12.2720 Si            1 RES     
     856 O           29.7090     4.6080     3.9520 O             1 RES     
     857 O           24.4790     6.5760     3.9720 O             1 RES     
     858 Si          45.4830     0.4720     2.9760 Si            1 RES     
     859 O           42.9600    21.7040     4.9030 O             1 RES     
     860 O           11.2310    19.0010     2.7990 O             1 RES     
     861 Si          30.8700     8.1510     3.5780 Si            1 RES     
     862 Si          10.7240    44.5390     9.5680 Si            1 RES     
     863 O           44.5910     3.2770    10.0920 O             1 RES     
     864 OS          40.6880    12.9890    12.1640 OS            1 RES     
     865 O           23.7620    34.0750     5.5450 O             1 RES     
     866 O           28.5770    19.4320     4.6810 O             1 RES     
     867 Si          48.8450    32.4750     3.0400 Si            1 RES     
     868 O            2.2640    28.7650    11.3580 O             1 RES     
     869 O            8.7090    18.4050    12.0580 O             1 RES     
     870 Si          36.6600    29.8290     3.7120 Si            1 RES     
     871 O           24.6190    21.3980     7.7070 O             1 RES     
     872 Si          39.7760    27.3710    10.4760 Si            1 RES     
     873 OS          48.4250    30.9370    11.5870 OS            1 RES     
     874 O           36.1050     3.2680     8.2910 O             1 RES     
     875 O           12.4430     1.3040     8.2790 O             1 RES     
     876 Si          33.4360    16.4340    10.8380 Si            1 RES     
     877 Si          30.7530     4.1730     5.0870 Si            1 RES     
     878 O            6.1070    38.0600     5.8620 O             1 RES     
     879 O           38.6680    36.4770     8.9480 O             1 RES     
     880 Si          11.1630     9.6020     5.7720 Si            1 RES     
     881 Si          40.3730    14.4940     8.7190 Si            1 RES     
     882 O           49.6810    32.3530     7.0340 O             1 RES     
     883 OS          14.2170    22.5440    13.1760 OS            1 RES     
     884 O           33.6960    15.5260     7.1440 O             1 RES     
     885 O           34.6540    49.6130     3.8450 O             1 RES     
     886 O            0.6790    30.3410     5.3820 O             1 RES     
     887 Si          19.0850    48.6460    12.2470 Si            1 RES     
     888 Si          22.1510     2.9900    10.5480 Si            1 RES     
     889 O           34.7300    36.8210     2.4400 O             1 RES     
     890 O            2.4910    18.3390     2.9200 O             1 RES     
     891 Si          46.3210    41.5570     3.9180 Si            1 RES     
     892 O           35.5150    12.7300     1.6720 O             1 RES     
     893 O           20.6750    35.7400     9.5880 O             1 RES     
     894 O           44.1660    26.3470     8.2340 O             1 RES     
     895 Si           0.5010    25.4290     7.9210 Si            1 RES     
     896 O           25.2210    39.4880     5.9300 O             1 RES     
     897 OS          46.3090    35.2350    12.6710 OS            1 RES     
     898 O           19.1550     7.3510     3.9290 O             1 RES     
     899 O           24.3180    25.4750     7.2570 O             1 RES     
     900 O           44.5330    42.4470    10.6150 O             1 RES     
     901 O           32.8890    37.2560     8.9580 O             1 RES     
     902 O            1.4300     7.6250    13.2710 O             1 RES     
     903 Si          10.0770    18.5520     6.3800 Si            1 RES     
     904 Si          15.4110    12.2030     8.9330 Si            1 RES     
     905 Si          23.5250    22.0570    12.3530 Si            1 RES     
     906 O           32.6580    29.0700    10.7970 O             1 RES     
     907 O           18.9780    11.5120    10.0640 O             1 RES     
     908 OS          25.6930    19.3670    13.4870 OS            1 RES     
     909 O           42.1530     9.8200     4.4030 O             1 RES     
     910 OS          31.5440    17.1520    13.7880 OS            1 RES     
     911 O           18.3820     7.7760    11.1990 O             1 RES     
     912 Si          19.9120    25.9010    10.4390 Si            1 RES     
     913 Si          21.2670    39.6860     3.0300 Si            1 RES     
     914 O           10.3610    44.5950     2.8460 O             1 RES     
     915 O           19.7400    45.9700     3.4200 O             1 RES     
     916 Si          18.8430    10.6020     5.8770 Si            1 RES     
     917 O           11.3070    24.0840     8.6510 O             1 RES     
     918 OS          21.1670     1.4560    13.9310 OS            1 RES     
     919 O            8.0970    29.2030     4.1690 O             1 RES     
     920 O           33.8360    10.8010     2.9710 O             1 RES     
     921 O            1.1100    20.6060     3.1090 O             1 RES     
     922 Si          46.7980    20.7630     8.3390 Si            1 RES     
     923 O           12.9400    38.4750     8.8170 O             1 RES     
     924 Si          29.6600    44.8580    10.0510 Si            1 RES     
     925 O           11.2120    15.4640     8.3510 O             1 RES     
     926 Si          39.6190     2.0610     8.6460 Si            1 RES     
     927 OS          19.3910    39.6610    12.7410 OS            1 RES     
     928 O           47.5620     7.4470     5.5700 O             1 RES     
     929 Si          39.2700    36.7440    10.3940 Si            1 RES     
     930 O           43.0340    18.0030     8.3440 O             1 RES     
     931 Si          31.7660     6.8110     9.2550 Si            1 RES     
     932 O            2.4310    20.7180     6.6690 O             1 RES     
     933 Si          41.7730    44.6900    12.3280 Si            1 RES     
     934 O           28.3720    33.8490     7.0030 O             1 RES     
     935 OS          12.9090    27.3060    12.5350 OS            1 RES     
     936 Si           4.1990     5.0560    10.8450 Si            1 RES     
     937 O           39.9540     5.4880     5.1340 O             1 RES     
     938 Si           2.1290    14.5270     4.0690 Si            1 RES     
     939 Si          23.8080     8.7590     7.0580 Si            1 RES     
     940 O           15.0930     0.7780     4.4410 O             1 RES     
     941 O           34.8950     4.1750     6.5650 O             1 RES     
     942 OS          34.3920    29.4680    12.5620 OS            1 RES     
     943 O            3.3300    22.7720     8.3380 O             1 RES     
     944 O           12.2920    44.5360     9.1110 O             1 RES     
     945 O            6.9350    20.8710     7.3810 O             1 RES     
     946 Si           8.2440    37.4110     8.3920 Si            1 RES     
     947 OS          25.8330    15.4440    13.8280 OS            1 RES     
     948 Si          13.5490    34.3190    11.9030 Si            1 RES     
     949 Si          19.7110     7.5830    10.4450 Si            1 RES     
     950 Si          28.6080    15.3720     4.9640 Si            1 RES     
     951 O           39.9930     4.1720     3.0720 O             1 RES     
     952 Si          25.0340    32.0940     8.5620 Si            1 RES     
     953 O           43.6290    33.2150     5.0040 O             1 RES     
     954 Si          11.3430    41.5240     4.6710 Si            1 RES     
     955 Si          27.0130    13.1390     8.3330 Si            1 RES     
     956 Si          48.9600    13.6160     4.9470 Si            1 RES     
     957 O           26.9220    29.1920     9.9540 O             1 RES     
     958 Si           6.3490    26.5680     6.4490 Si            1 RES     
     959 O           26.2180     3.1580    10.9840 O             1 RES     
     960 O           33.2120    16.3800     9.3320 O             1 RES     
     961 OS           6.4260    34.7250    12.1420 OS            1 RES     
     962 O           19.1830    48.4110     2.8480 O             1 RES     
     963 Si           2.8540    46.5740     8.6460 Si            1 RES     
     964 O           40.5630    35.5950     5.7950 O             1 RES     
     965 O           33.2630    10.6490     7.6910 O             1 RES     
     966 O           44.8170    49.4930     6.4370 O             1 RES     
     967 O           15.8050     0.2400    11.7960 O             1 RES     
     968 Si          29.1690    40.2680     6.9740 Si            1 RES     
     969 O           24.2300    32.0940     9.9360 O             1 RES     
     970 OS          36.0060    14.0500    12.9430 OS            1 RES     
     971 Si           4.1400    31.8930    12.2360 Si            1 RES     
     972 O           13.9600    35.7890    11.8600 O             1 RES     
     973 O           10.1560    17.0980     6.7790 O             1 RES     
     974 O           31.4100    38.4720    11.0010 O             1 RES     
     975 O           16.3110     9.1870    12.1930 O             1 RES     
     976 O           49.7160     6.1130    11.9960 O             1 RES     
     977 Si          46.2190     6.7850     6.0930 Si            1 RES     
     978 O           49.4500     8.6740    12.1600 O             1 RES     
     979 O            0.5590    24.8310     9.4250 O             1 RES     
     980 O           31.0190    12.8100     4.2520 O             1 RES     
     981 O           42.5120    13.8110     3.3200 O             1 RES     
     982 O           44.9820    35.0040     3.9540 O             1 RES     
     983 Si          47.8900    40.3320     9.3920 Si            1 RES     
     984 OS          40.7650    19.2600    12.4870 OS            1 RES     
     985 O           49.3310    34.6780     8.0710 O             1 RES     
     986 O            6.5610     9.2230     3.8240 O             1 RES     
     987 O           34.6850    12.5290    11.3780 O             1 RES     
     988 Si          24.1050    39.4900    10.4800 Si            1 RES     
     989 O           33.2570     0.2650     5.6660 O             1 RES     
     990 O           22.7900     9.8900     7.1890 O             1 RES     
     991 O           32.6950    35.6060     6.7950 O             1 RES     
     992 OS           5.9340    28.2390    12.2320 OS            1 RES     
     993 O           29.9530    15.9870     4.5410 O             1 RES     
     994 Si          45.8740    13.8780     8.0790 Si            1 RES     
     995 OS          43.1760    24.2670    13.5710 OS            1 RES     
     996 O           34.1640    17.8210    10.9570 O             1 RES     
     997 Si          49.1160    20.2060    11.9690 Si            1 RES     
     998 O           15.7400    10.8380     8.1330 O             1 RES     
     999 Si           5.7440    46.3750     9.5310 Si            1 RES     
    1000 O           38.2740    24.3050    10.1730 O             1 RES     
    1001 O           43.1520     1.7600     6.8610 O             1 RES     
    1002 O           24.4440    16.8930     9.2070 O             1 RES     
    1003 Si          47.1230    44.1060     8.0430 Si            1 RES     
    1004 Si          32.3110    13.8020     4.0170 Si            1 RES     
    1005 O           27.0840     0.2090     8.7460 O             1 RES     
    1006 Si          42.5260    24.7440    12.2770 Si            1 RES     
    1007 O           48.5480     9.5350     6.5140 O             1 RES     
    1008 O           32.0830     5.2400     9.5810 O             1 RES     
    1009 Si          30.7770     6.9750     6.3810 Si            1 RES     
    1010 O           32.6560    17.3460     3.5770 O             1 RES     
    1011 Si          22.9830    46.9500     5.2330 Si            1 RES     
    1012 Si          10.7820    22.8880     7.5800 Si            1 RES     
    1013 O           37.9150    35.4680     2.4360 O             1 RES     
    1014 Si          28.5620    10.2560     3.2980 Si            1 RES     
    1015 O           39.5970     8.4610     6.8880 O             1 RES     
    1016 O           28.0860    27.0470    12.8440 O             1 RES     
    1017 Si          12.4540     0.0520     9.2110 Si            1 RES     
    1018 O           25.1730     9.3400     6.4250 O             1 RES     
    1019 O           33.3330    44.0330    10.0310 O             1 RES     
    1020 O           41.8390    24.0760     5.2260 O             1 RES     
    1021 Si          37.3600    17.2670     7.9960 Si            1 RES     
    1022 Si          28.2610    28.7300     5.8670 Si            1 RES     
    1023 Si          30.2820     8.1480    12.0040 Si            1 RES     
    1024 O            3.8730     2.3210     7.7110 O             1 RES     
    1025 O           14.0220    10.2330    11.5570 O             1 RES     
    1026 Si          22.5800    13.5060     8.3100 Si            1 RES     
    1027 O           49.1180     1.8730     9.3660 O             1 RES     
    1028 Si          48.9490    14.0960     8.0240 Si            1 RES     
    1029 Si          46.8790     3.8960     6.8860 Si            1 RES     
    1030 O           35.4650    32.8620     6.0240 O             1 RES     
    1031 O           27.1510    37.9040     8.7450 O             1 RES     
    1032 Si          17.7620    23.1290     3.9820 Si            1 RES     
    1033 O           26.4320    17.0710     7.9550 O             1 RES     
    1034 O           23.7870    28.9780    13.9750 O             1 RES     
    1035 O           14.9030    22.0870     6.1110 O             1 RES     
    1036 O           16.5420    43.3890     8.1150 O             1 RES     
    1037 O            0.9190    22.9880     4.2150 O             1 RES     
    1038 Si          17.7200    13.2740     4.9340 Si            1 RES     
    1039 O            5.1420    42.4580     8.9610 O             1 RES     
    1040 O           34.5830     8.8080     5.8920 O             1 RES     
    1041 O            0.6930    22.6550     1.5560 O             1 RES     
    1042 O           27.9120    44.4110     6.9660 O             1 RES     
    1043 Si          48.7060    12.1020    12.1750 Si            1 RES     
    1044 O           40.0080     4.3710    11.6840 O             1 RES     
    1045 O           18.3840    14.6960     5.1130 O             1 RES     
    1046 O            5.2630    46.3220    11.0400 O             1 RES     
    1047 O           47.8390    21.1070     5.3680 O             1 RES     
    1048 Si          26.3970    15.0080    12.4620 Si            1 RES     
    1049 O           42.3170    26.3140     6.2530 O             1 RES     
    1050 O           25.3350     7.2390    10.7060 O             1 RES     
    1051 Si          31.4810    26.0880     8.1040 Si            1 RES     
    1052 O           49.2420    36.2610     5.9950 O             1 RES     
    1053 O           46.9280     2.4810     9.7930 O             1 RES     
    1054 O           36.5390    30.8970     7.4160 O             1 RES     
    1055 O           32.5680    21.7720     6.0700 O             1 RES     
    1056 O            1.2920    19.6120     8.2810 O             1 RES     
    1057 O           24.1240    12.2340     5.0580 O             1 RES     
    1058 Si           3.8400     3.8590     8.0030 Si            1 RES     
    1059 Si           2.7330     7.5870     9.8720 Si            1 RES     
    1060 O            7.5060    25.9090    11.4880 O             1 RES     
    1061 Si           8.4160    24.7610     7.8710 Si            1 RES     
    1062 OS           1.2370    16.9980    13.2580 OS            1 RES     
    1063 O           14.4070     2.7210     7.7180 O             1 RES     
    1064 O           25.0570    40.4720    11.2770 O             1 RES     
    1065 O           21.3450    31.9200     4.4470 O             1 RES     
    1066 Si          11.9350    39.3810     9.6200 Si            1 RES     
    1067 Si          12.9040     2.3990     7.3500 Si            1 RES     
    1068 O           34.6530     4.1580     4.0910 O             1 RES     
    1069 Si          20.6580    32.5660     5.7020 Si            1 RES     
    1070 O            9.9550     6.7670    10.5320 O             1 RES     
    1071 O            6.3270    49.7210     5.6860 O             1 RES     
    1072 O           28.0230    23.1170     4.3880 O             1 RES     
    1073 Si          13.5940     1.3770     4.4050 Si            1 RES     
    1074 O           26.0460    12.7870     7.0520 O             1 RES     
    1075 Si           8.1330    39.0510    11.0320 Si            1 RES     
    1076 O           29.3400     0.0210     9.9030 O             1 RES     
    1077 OS          20.6290    19.5290    12.8240 OS            1 RES     
    1078 O           46.3110    16.6070     5.0460 O             1 RES     
    1079 O           35.1690     9.0720     8.2150 O             1 RES     
    1080 O           22.7640    36.2150    10.5800 O             1 RES     
    1081 O           21.7240     4.2780    11.3080 O             1 RES     
    1082 O           30.1630    19.2540     8.8420 O             1 RES     
    1083 Si          15.8320    17.6140    10.7090 Si            1 RES     
    1084 O           49.4760    39.6740     5.8810 O             1 RES     
    1085 O           17.5210    13.0590     3.3260 O             1 RES     
    1086 Si          13.2090    43.8680     5.5150 Si            1 RES     
    1087 O           36.7560    28.3420     3.2740 O             1 RES     
    1088 O            0.1930     8.2110     7.5440 O             1 RES     
    1089 O           40.9160     8.9220     9.0310 O             1 RES     
    1090 Si          35.5870    48.5000    12.5270 Si            1 RES     
    1091 OS          32.5230    30.9610    12.8910 OS            1 RES     
    1092 Si          26.3850    30.8540     4.7940 Si            1 RES     
    1093 Si          21.2500     0.8260    12.5180 Si            1 RES     
    1094 O           27.9370    28.7950     7.4510 O             1 RES     
    1095 Si          32.3110     1.7010    11.9900 Si            1 RES     
    1096 O           20.8080     3.1280     6.0350 O             1 RES     
    1097 O           40.3960    19.4270    10.0400 O             1 RES     
    1098 O            8.1620    44.6540     3.9810 O             1 RES     
    1099 O           31.2400    47.1840     7.4300 O             1 RES     
    1100 O           23.7120     2.8520    10.9510 O             1 RES     
    1101 Si          21.9530    49.8670     5.1650 Si            1 RES     
    1102 O           28.4080    32.9060    12.4150 O             1 RES     
    1103 Si           2.6000    39.6720    10.1250 Si            1 RES     
    1104 Si          14.2540    20.1500     9.5970 Si            1 RES     
    1105 Si          33.7110    11.3420    11.5940 Si            1 RES     
    1106 O            2.3200    36.0940    10.2110 O             1 RES     
    1107 Si          33.6340    36.2480     7.9020 Si            1 RES     
    1108 O           24.1490    43.2310    10.0890 O             1 RES     
    1109 O           43.1390    28.5830    10.8060 O             1 RES     
    1110 O           47.2410     5.9820    11.9870 O             1 RES     
    1111 Si          13.1380    10.7930    10.3950 Si            1 RES     
    1112 O           17.1380    33.0670    11.5390 O             1 RES     
    1113 Si          26.4910    29.8150    11.3490 Si            1 RES     
    1114 O           18.5480    12.0030     5.4170 O             1 RES     
    1115 O           31.5450    35.9710     4.5650 O             1 RES     
    1116 Si           0.7740    47.0520     3.7350 Si            1 RES     
    1117 O            2.5520     7.5940     3.3250 O             1 RES     
    1118 Si          45.9920    32.1560     8.3110 Si            1 RES     
    1119 O           44.3380    46.0900     7.4270 O             1 RES     
    1120 Si          43.0130    29.5670     5.5960 Si            1 RES     
    1121 Si          43.2570     4.0900    10.1390 Si            1 RES     
    1122 Si          27.4220     3.6870    10.1520 Si            1 RES     
    1123 O           20.0630    39.6790     1.9350 O             1 RES     
    1124 O           17.8060     0.4220     4.2120 O             1 RES     
    1125 O           38.2740     6.0910    11.2360 O             1 RES     
    1126 O            4.5930    39.7580     5.1360 O             1 RES     
    1127 Si          28.9100     1.9180     6.1170 Si            1 RES     
    1128 O           11.7560     6.7500     4.0410 O             1 RES     
    1129 Si          24.7800    37.9610     5.9250 Si            1 RES     
    1130 O            9.0370     8.2650     8.6630 O             1 RES     
    1131 O           24.0770    12.4170     2.5300 O             1 RES     
    1132 O           37.7560    32.9340     2.4400 O             1 RES     
    1133 OS           4.5950    49.1400    14.5170 OS            1 RES     
    1134 O           24.6140    21.0140    11.8510 O             1 RES     
    1135 O           22.9150    25.2500     2.6540 O             1 RES     
    1136 O           10.7970    47.4620     6.5500 O             1 RES     
    1137 Si          21.8370    41.1810     9.1520 Si            1 RES     
    1138 O            9.1480     7.9230     3.5290 O             1 RES     
    1139 Si          40.5370     9.9940    10.0790 Si            1 RES     
    1140 O            5.7350     5.3190    11.2190 O             1 RES     
    1141 O            1.9570    38.9090     4.9630 O             1 RES     
    1142 O           39.2870    40.1540    10.0700 O             1 RES     
    1143 O            3.8470    17.0590     4.3490 O             1 RES     
    1144 O           17.8950    41.6230     7.1700 O             1 RES     
    1145 Si          41.1600    32.1080     9.2800 Si            1 RES     
    1146 Si           7.5300    18.7090     4.5500 Si            1 RES     
    1147 O           39.2430    10.7900     9.7430 O             1 RES     
    1148 O           38.8950    14.7690     9.3090 O             1 RES     
    1149 Si          32.5590    37.3940    10.4550 Si            1 RES     
    1150 O           36.1270    46.5280     6.8370 O             1 RES     
    1151 O           35.6710     7.5290     3.6010 O             1 RES     
    1152 Si          41.2410     5.5420     6.0670 Si            1 RES     
    1153 O           44.3530    47.2570     5.2990 O             1 RES     
    1154 O           21.0960    11.5510    11.3260 O             1 RES     
    1155 O           36.3140    47.7270     2.8030 O             1 RES     
    1156 Si           3.2690     7.8770     4.6890 Si            1 RES     
    1157 Si          44.3260    32.8360    10.9620 Si            1 RES     
    1158 O            5.9080    44.4830     4.7470 O             1 RES     
    1159 O           37.8670    48.5510     6.9750 O             1 RES     
    1160 Si          47.7890    29.7170     7.8140 Si            1 RES     
    1161 O           10.5360    45.8010    10.8160 O             1 RES     
    1162 O           30.0420     6.9110     3.1560 O             1 RES     
    1163 O           29.3280    25.3040     5.3200 O             1 RES     
    1164 O            2.6590     4.1220     4.7300 O             1 RES     
    1165 O            3.6920    39.0040     2.9030 O             1 RES     
    1166 O           46.0630     7.6860    10.0550 O             1 RES     
    1167 Si          42.8980    39.7550    11.7930 Si            1 RES     
    1168 Si          44.6300    32.1160     5.5620 Si            1 RES     
    1169 Si           6.6730    28.6420     4.1830 Si            1 RES     
    1170 O           35.2920    12.1580     4.2350 O             1 RES     
    1171 O           23.1660    15.8090     4.5290 O             1 RES     
    1172 OS          36.2370    33.6100    13.1820 OS            1 RES     
    1173 O            7.7920    19.5000     3.2450 O             1 RES     
    1174 Si          39.0220    39.1650     3.7950 Si            1 RES     
    1175 O           38.6900    39.3440     5.2950 O             1 RES     
    1176 Si          20.5840    46.4850     9.0350 Si            1 RES     
    1177 Si          26.1220     6.8770     3.7100 Si            1 RES     
    1178 O           20.6050    27.2480    10.9330 O             1 RES     
    1179 O           42.4750    43.0040     4.0240 O             1 RES     
    1180 O           48.6060    16.6050     3.7510 O             1 RES     
    1181 OS          31.7590    28.7610    13.1040 OS            1 RES     
    1182 O           17.4440    10.2380     6.5740 O             1 RES     
    1183 O           29.8050     9.3610     3.5760 O             1 RES     
    1184 O           24.9300     2.2730     5.9240 O             1 RES     
    1185 O           28.3520    10.3970     1.7180 O             1 RES     
    1186 O           45.0480    49.2860     3.9300 O             1 RES     
    1187 O           48.9510    41.4400     9.0160 O             1 RES     
    1188 Si          23.2200    44.8880     8.7860 Si            1 RES     
    1189 O           46.5110    30.6330     8.0910 O             1 RES     
    1190 Si           2.9310    20.3950    11.4460 Si            1 RES     
    1191 O           37.0440    36.4570     7.0990 O             1 RES     
    1192 OS          23.2340    45.3400    13.3730 OS            1 RES     
    1193 Si           4.5790    17.8720    12.0130 Si            1 RES     
    1194 O           31.9420    31.6430     9.0490 O             1 RES     
    1195 Si          20.8980    21.6300     7.9010 Si            1 RES     
    1196 O           20.6810    24.5750    10.5290 O             1 RES     
    1197 Si          49.8680    39.7510    11.6200 Si            1 RES     
    1198 O           46.8890    41.2540    10.2250 O             1 RES     
    1199 Si          41.9310    29.5470    10.6970 Si            1 RES     
    1200 O            0.9740     5.9620     6.5700 O             1 RES     
    1201 O           15.6560    34.3010     8.0550 O             1 RES     
    1202 O           11.1760    49.7570    10.1540 O             1 RES     
    1203 O           16.9850    20.3870     6.9930 O             1 RES     
    1204 O           21.1540    22.3680     9.2110 O             1 RES     
    1205 Si           7.0370     4.9610    12.2210 Si            1 RES     
    1206 O            2.4470     0.3440    10.6000 O             1 RES     
    1207 Si          34.4530    45.6960    12.7250 Si            1 RES     
    1208 O           35.4760     0.9680    10.6270 O             1 RES     
    1209 O           38.3100    16.9160     6.8450 O             1 RES     
    1210 Si          49.5990    10.9130     3.3680 Si            1 RES     
    1211 O           30.3820    40.4390    11.8390 O             1 RES     
    1212 O            2.3780    48.0490     9.1800 O             1 RES     
    1213 O           11.9200    35.5030     8.8340 O             1 RES     
    1214 Si          11.6610    42.2820    11.3350 Si            1 RES     
    1215 O           16.2840     2.2140     9.1100 O             1 RES     
    1216 O           28.8800    23.1380     6.8910 O             1 RES     
    1217 Si          15.1530     8.2330     3.0780 Si            1 RES     
    1218 O           37.6080    16.6840     3.1480 O             1 RES     
    1219 O           16.5280    23.4710     4.8550 O             1 RES     
    1220 O            2.0400    19.3430    10.6480 O             1 RES     
    1221 O           26.6770    32.2300     8.4070 O             1 RES     
    1222 O           34.8490    45.1810     8.5100 O             1 RES     
    1223 O           44.2890    39.3050    11.3820 O             1 RES     
    1224 O           33.8490    20.4930    11.2560 O             1 RES     
    1225 O           22.5550    39.5800     2.1820 O             1 RES     
    1226 O           42.6690    41.1440    11.1220 O             1 RES     
    1227 O            1.5370    26.3480    11.4820 O             1 RES     
    1228 O           31.1460    46.0030     2.2060 O             1 RES     
    1229 O            6.7110    37.0250     8.4600 O             1 RES     
    1230 O           40.4520    26.0420     4.4160 O             1 RES     
    1231 Si           1.4310    29.3570     4.3530 Si            1 RES     
    1232 Si          29.4410    44.1440     6.3630 Si            1 RES     
    1233 Si          34.5620    37.2000    12.6940 Si            1 RES     
    1234 O           15.4150    17.9690     3.7480 O             1 RES     
    1235 O           48.6890    29.9460     9.1440 O             1 RES     
    1236 Si          19.7040    35.1190     4.3010 Si            1 RES     
    1237 Si           9.2350    40.2780     8.5050 Si            1 RES     
    1238 O           10.1700    22.6780     3.4770 O             1 RES     
    1239 O           28.0260    48.4980     3.9550 O             1 RES     
    1240 Si          10.2590     7.0960     4.3300 Si            1 RES     
    1241 Si          10.7680     0.3680     4.1590 Si            1 RES     
    1242 O            7.4330    33.4430    10.3300 O             1 RES     
    1243 O           37.5930    12.8270     9.0240 O             1 RES     
    1244 O           39.2760    49.7930     5.2960 O             1 RES     
    1245 Si          40.4220    22.1860     8.0240 Si            1 RES     
    1246 O           41.5440    30.2860     5.8490 O             1 RES     
    1247 Si          15.1180    23.4980     5.5180 Si            1 RES     
    1248 O           37.2250    44.6220     8.1630 O             1 RES     
    1249 Si          37.4620    29.9450     6.6480 Si            1 RES     
    1250 O           28.2940     2.3970     9.6980 O             1 RES     
    1251 Si          49.9060    16.3460     2.8790 Si            1 RES     
    1252 O            2.1370    21.5170    12.1680 O             1 RES     
    1253 O           43.6060    34.1830    10.4770 O             1 RES     
    1254 Si          40.0440    22.8680     2.7750 Si            1 RES     
    1255 Si          30.3540    49.4740    11.0060 Si            1 RES     
    1256 O           10.4660    28.0500     3.3230 O             1 RES     
    1257 O           43.5030    29.4090     4.0760 O             1 RES     
    1258 O           12.3350    34.3870    10.9070 O             1 RES     
    1259 Si          30.2830    35.4870    10.0540 Si            1 RES     
    1260 O            1.5180     7.7760    10.8100 O             1 RES     
    1261 OS          13.9350    48.6380    12.4890 OS            1 RES     
    1262 O           11.8470    15.4370     5.8870 O             1 RES     
    1263 Si          36.3330    41.9210    10.7280 Si            1 RES     
    1264 Si          35.4250    49.3560     9.7630 Si            1 RES     
    1265 O           20.1260    10.3950     6.6900 O             1 RES     
    1266 O           42.1540     3.4420    10.9540 O             1 RES     
    1267 OS          48.7590     4.2680    13.4230 OS            1 RES     
    1268 O           34.3070    45.7400    11.1810 O             1 RES     
    1269 Si          28.9580    19.7090    12.6810 Si            1 RES     
    1270 O           13.5450     2.5430     3.3690 O             1 RES     
    1271 Si          10.8420    26.5980     2.8430 Si            1 RES     
    1272 Si          20.2770    23.7320     5.6520 Si            1 RES     
    1273 Si          14.4350    38.4700     8.2500 Si            1 RES     
    1274 O           14.3810    38.4590    11.4540 O             1 RES     
    1275 Si          40.9010     7.9910    12.3730 Si            1 RES     
    1276 Si           4.0140    12.4090     2.8490 Si            1 RES     
    1277 O           46.4900     5.3760     6.6270 O             1 RES     
    1278 O           43.7220     5.6280     2.8890 O             1 RES     
    1279 OS           9.7740     8.0690    12.8280 OS            1 RES     
    1280 O           11.2780    22.8880     6.1010 O             1 RES     
    1281 Si          34.9060    19.1140     7.6960 Si            1 RES     
    1282 O           14.3030     7.0030     3.5270 O             1 RES     
    1283 O            7.6360     4.7540     3.4860 O             1 RES     
    1284 O            1.1770    36.5940     7.9670 O             1 RES     
    1285 Si          41.8900    36.6090     5.6030 Si            1 RES     
    1286 Si           8.3270    24.6850    10.8860 Si            1 RES     
    1287 Si          48.5580    37.0190     4.7550 Si            1 RES     
    1288 O           18.0280    24.1480     2.7820 O             1 RES     
    1289 O           38.2120    40.3700     3.1680 O             1 RES     
    1290 O           13.2290    18.9340     4.1960 O             1 RES     
    1291 O            1.5240    42.1600     5.3490 O             1 RES     
    1292 O           34.2080    41.4020     2.9950 O             1 RES     
    1293 O            9.9340    30.2440     7.3410 O             1 RES     
    1294 O            2.0630    15.5610     2.9380 O             1 RES     
    1295 Si          27.0240    28.3330     8.6310 Si            1 RES     
    1296 O           38.5380    40.3870    12.5310 O             1 RES     
    1297 O           35.8430     5.7330    11.5410 O             1 RES     
    1298 O           27.5350     2.5990     5.9240 O             1 RES     
    1299 Si          43.6470     6.3850     4.3100 Si            1 RES     
    1300 O           42.4490    45.0810     5.6010 O             1 RES     
    1301 O           38.6840    34.5900     7.1850 O             1 RES     
    1302 Si          43.7680    26.7680     6.7440 Si            1 RES     
    1303 O           47.2250    26.1170     2.2900 O             1 RES     
    1304 O            4.9090    17.5310    10.4690 O             1 RES     
    1305 Si          31.4390    21.9590     5.0050 Si            1 RES     
    1306 Si          21.4930    10.7350     7.5580 Si            1 RES     
    1307 O           13.9710     6.4620     5.8890 O             1 RES     
    1308 O           33.0330    13.1450     8.0570 O             1 RES     
    1309 Si          34.9240    33.4730     4.7240 Si            1 RES     
    1310 OS          26.3210    32.7020    13.5690 OS            1 RES     
    1311 Si          31.5440    41.4570    12.4750 Si            1 RES     
    1312 O           29.3740    43.0310     2.4190 O             1 RES     
    1313 O           25.4890    13.7300    12.0520 O             1 RES     
    1314 Si          41.1940    25.4280     5.6740 Si            1 RES     
    1315 Si          25.0190    33.6200     4.5810 Si            1 RES     
    1316 O           25.8520    37.3180     4.9610 O             1 RES     
    1317 O           26.2680    22.5560     2.5550 O             1 RES     
    1318 O           33.7020     3.5210     8.8710 O             1 RES     
    1319 Si          49.5320    36.2110     7.5480 Si            1 RES     
    1320 O            7.9020    12.8950     5.8120 O             1 RES     
    1321 Si          32.6620    21.5750    11.0900 Si            1 RES     
    1322 Si          41.8410    37.7970     9.8630 Si            1 RES     
    1323 O           24.8970    38.6820     9.4090 O             1 RES     
    1324 O           19.4320    30.9940     8.6450 O             1 RES     
    1325 O           23.0340     6.4600    10.7360 O             1 RES     
    1326 Si           6.1230    21.0220     6.0700 Si            1 RES     
    1327 O           26.2580     7.8970     4.8800 O             1 RES     
    1328 O           24.7020    27.8820     4.0000 O             1 RES     
    1329 O            6.7870    43.4910    11.0880 O             1 RES     
    1330 O            4.7200    26.2960     6.7230 O             1 RES     
    1331 O           37.7030    28.5370     7.3720 O             1 RES     
    1332 O           34.9560    33.9470    11.0150 O             1 RES     
    1333 O           14.4000    21.2030    10.7780 O             1 RES     
    1334 OS          17.2170    24.9120    13.6390 OS            1 RES     
    1335 O            4.4340    46.6510     3.6400 O             1 RES     
    1336 O           30.7400    41.4030     3.7310 O             1 RES     
    1337 O            4.3840    13.3880    11.0640 O             1 RES     
    1338 OS          22.1030    11.6210    13.7130 OS            1 RES     
    1339 Si          31.4340    47.1230     9.0250 Si            1 RES     
    1340 OS          36.8030    42.6740    12.0850 OS            1 RES     
    1341 Si          22.1270    35.1590     9.6950 Si            1 RES     
    1342 Si           4.3300    41.3140     8.1820 Si            1 RES     
    1343 O           40.7490    28.5730    10.2950 O             1 RES     
    1344 O           32.6930    40.5850     4.9870 O             1 RES     
    1345 O           31.9860     3.9110     4.1460 O             1 RES     
    1346 O           45.5510     9.8530     8.1410 O             1 RES     
    1347 Si          30.2600    26.5190     5.2240 Si            1 RES     
    1348 Si          30.8330    16.8930    12.4020 Si            1 RES     
    1349 O           33.2690     3.5440     1.8200 O             1 RES     
    1350 Si          33.1600    28.3150     9.5480 Si            1 RES     
    1351 O           44.0770    47.9320    12.2840 O             1 RES     
    1352 O           47.5480    38.0060     5.6180 O             1 RES     
    1353 Si          37.6450    27.2860     8.3550 Si            1 RES     
    1354 OS          27.5640    24.5850    13.4620 OS            1 RES     
    1355 O            7.1940    24.1080     3.5390 O             1 RES     
    1356 Si          16.4750     0.4530     5.0370 Si            1 RES     
    1357 OS          19.0150    33.9640    12.9490 OS            1 RES     
    1358 Si          13.7360    46.8480     4.7960 Si            1 RES     
    1359 O           45.7160     3.1720     7.7260 O             1 RES     
    1360 O           47.2460    43.8840     6.4930 O             1 RES     
    1361 O           33.8920     7.0090    12.1530 O             1 RES     
    1362 Si          39.0750     5.0900     3.8950 Si            1 RES     
    1363 O            7.5480    21.7370     2.2120 O             1 RES     
    1364 O           38.7150    11.9880     2.8450 O             1 RES     
    1365 O           17.3960    45.5620     7.7220 O             1 RES     
    1366 Si          25.4570     0.0150     8.9280 Si            1 RES     
    1367 O           26.8410    31.3830    11.3970 O             1 RES     
    1368 Si           6.6870    28.7520     8.6050 Si            1 RES     
    1369 O           22.9350     8.4130     3.4420 O             1 RES     
    1370 O           39.6580    23.4910     8.2180 O             1 RES     
    1371 O           40.5220    13.4140     7.5850 O             1 RES     
    1372 O           12.5910    40.7200     5.2870 O             1 RES     
    1373 OS          29.9960    21.1650    13.4540 OS            1 RES     
    1374 Si          41.0860    12.8460     6.2010 Si            1 RES     
    1375 Si          16.5360    42.3980     6.8450 Si            1 RES     
    1376 O            5.2850    29.5070     8.5800 O             1 RES     
    1377 Si          45.8050    26.2980     2.8180 Si            1 RES     
    1378 O           13.0470    46.5060     7.9250 O             1 RES     
    1379 O            0.7180    49.8240     8.9760 O             1 RES     
    1380 Si          11.1980    35.2150    10.2120 Si            1 RES     
    1381 O           16.1250    27.2630     7.1250 O             1 RES     
    1382 O           42.0090     8.9310     6.7160 O             1 RES     
    1383 O           29.4600     7.4260     7.0500 O             1 RES     
    1384 Si          24.4940    16.1220     5.1530 Si            1 RES     
    1385 O           14.2950    24.3120     4.4240 O             1 RES     
    1386 O           29.1570    32.0700     6.3030 O             1 RES     
    1387 O           16.2070    42.0650     2.8460 O             1 RES     
    1388 Si           9.1930     2.1070     6.1930 Si            1 RES     
    1389 O           22.3780    10.9030     3.1270 O             1 RES     
    1390 O           29.5450    27.8690     5.5900 O             1 RES     
    1391 Si           9.7130    35.8030     6.0890 Si            1 RES     
    1392 O           16.2530    39.6080     2.5560 O             1 RES     
    1393 O           36.1380    34.2730     4.0100 O             1 RES     
    1394 O           38.8820    42.7470     2.5550 O             1 RES     
    1395 O           41.4980     4.0980     6.5750 O             1 RES     
    1396 O           44.7810    41.7280     3.7870 O             1 RES     
    1397 Si          21.5530    37.3940     5.0980 Si            1 RES     
    1398 O           15.2540    46.7190     5.0130 O             1 RES     
    1399 Si          48.3050     8.8110     5.0710 Si            1 RES     
    1400 Si          19.3380    36.4260     9.9850 Si            1 RES     
    1401 O           47.7060     8.7760     8.5610 O             1 RES     
    1402 O           16.0610     6.3310     7.6540 O             1 RES     
    1403 O           48.3560    10.4680     2.3570 O             1 RES     
    1404 Si           7.5970    15.8860     3.3550 Si            1 RES     
    1405 Si          33.3320    42.4600    10.1280 Si            1 RES     
    1406 Si          46.0100    36.0040     3.3990 Si            1 RES     
    1407 O           46.9380    40.5590     4.9240 O             1 RES     
    1408 Si          14.4050    18.2450     4.9420 Si            1 RES     
    1409 O           46.1040    11.4080     5.6420 O             1 RES     
    1410 O           27.3830     8.8200     6.7370 O             1 RES     
    1411 O           31.8700    15.0560     3.2500 O             1 RES     
    1412 Si          15.9070    10.0890     6.7220 Si            1 RES     
    1413 O           10.8390    15.5770    10.8400 O             1 RES     
    1414 Si           3.8790    23.8550     9.3030 Si            1 RES     
    1415 O           10.9570    21.5610     8.4690 O             1 RES     
    1416 Si           7.0870    27.4220    11.3940 Si            1 RES     
    1417 O           42.1170    20.9600    11.0440 O             1 RES     
    1418 O           41.2090     6.6220     7.2350 O             1 RES     
    1419 Si           3.2300    16.7320     5.8630 Si            1 RES     
    1420 O           25.0490    41.8660     6.4780 O             1 RES     
    1421 Si           1.2730    44.7730    10.5840 Si            1 RES     
    1422 O            2.6120    46.4420     7.0790 O             1 RES     
    1423 O           13.6390    49.8840    10.2120 O             1 RES     
    1424 O           30.6700    34.1810     9.2810 O             1 RES     
    1425 Si          41.1270    42.6480     8.1450 Si            1 RES     
    1426 O           40.0150     6.7220    12.7820 O             1 RES     
    1427 OS          46.5220    14.8410    13.6800 OS            1 RES     
    1428 O           19.5030    37.4470    11.1780 O             1 RES     
    1429 O           40.1420    18.5980     7.4890 O             1 RES     
    1430 O            6.4810    45.2430    12.8770 O             1 RES     
    1431 O            3.6000    44.9390     4.7370 O             1 RES     
    1432 O           40.1310    32.9500    10.1810 O             1 RES     
    1433 Si          26.6890    16.7210     3.0580 Si            1 RES     
    1434 O            7.4210    33.3580     4.5400 O             1 RES     
    1435 O           47.3600    32.4420     2.6270 O             1 RES     
    1436 O           38.3920    45.2230     3.4960 O             1 RES     
    1437 O            2.3880    18.0540     6.4230 O             1 RES     
    1438 O           25.3700    36.4550     2.4690 O             1 RES     
    1439 O           33.4470    13.1420     3.1830 O             1 RES     
    1440 O           24.0410    23.1650    13.5520 O             1 RES     
    1441 O           36.7380    34.8560     9.1230 O             1 RES     
    1442 O           43.6660    35.3340     8.4330 O             1 RES     
    1443 O           39.8860     2.2040    10.2160 O             1 RES     
    1444 OS          49.6020    12.7850    13.2680 OS            1 RES     
    1445 O           33.9400    24.2910     2.7330 O             1 RES     
    1446 O           11.1720    18.9820     5.3790 O             1 RES     
    1447 O           14.0480     9.3350     3.0620 O             1 RES     
    1448 O           42.7380    34.8950     2.7400 O             1 RES     
    1449 O           45.4570    30.3800     2.5570 O             1 RES     
    1450 O           34.2480    35.0790     8.7640 O             1 RES     
    1451 O           14.3800    26.3200    10.8220 O             1 RES     
    1452 Si           5.3480    49.4170    12.7330 Si            1 RES     
    1453 O           34.2900     4.8140    13.7120 O             1 RES     
    1454 O           41.5300    11.3990     6.3670 O             1 RES     
    1455 O           46.0850    35.4200     1.9540 O             1 RES     
    1456 Si          11.4050    22.6560     4.4670 Si            1 RES     
    1457 Si           5.4440    46.3220    12.6150 Si            1 RES     
    1458 O           47.9650     3.8760     8.0230 O             1 RES     
    1459 O           22.6100    24.2770     9.1200 O             1 RES     
    1460 O            8.7410     3.2920     5.2770 O             1 RES     
    1461 O           43.1120    13.3500    10.8740 O             1 RES     
    1462 O           40.3440    48.4660     7.4730 O             1 RES     
    1463 OS           3.4810     4.3130    11.9250 OS            1 RES     
    1464 O           15.4450    37.0720    13.3770 O             1 RES     
    1465 O           30.5520    32.6320    11.0970 O             1 RES     
    1466 O           14.9040    13.0700     7.7000 O             1 RES     
    1467 Si          43.4640    34.5120     4.1050 Si            1 RES     
    1468 O           37.2750    41.3190     6.3480 O             1 RES     
    1469 O           16.5790     8.1120     3.7590 O             1 RES     
    1470 O           44.9030    17.5790     9.8250 O             1 RES     
    1471 O           42.4170    23.6620    11.1840 O             1 RES     
    1472 Si          11.8210    19.6120     4.0960 Si            1 RES     
    1473 O            4.2290     4.2180     9.5200 O             1 RES     
    1474 O           11.9240     3.5670     7.9060 O             1 RES     
    1475 Si          23.2640    28.3340     4.5650 Si            1 RES     
    1476 Si          10.6550    15.6260     6.9070 Si            1 RES     
    1477 Si          16.6240    47.4700     4.8540 Si            1 RES     
    1478 O           42.4230    43.5150    11.6360 O             1 RES     
    1479 O           44.6300    13.0840     4.7050 O             1 RES     
    1480 O           24.8870    23.7760     8.7800 O             1 RES     
    1481 Si          44.1340    14.4970    10.5390 Si            1 RES     
    1482 O            1.7890    11.3740     9.7400 O             1 RES     
    1483 Si          36.3550    48.1240     7.1680 Si            1 RES     
    1484 O           10.2310    49.0210     4.5630 O             1 RES     
    1485 O           28.3610    24.1750     9.0730 O             1 RES     
    1486 O           20.6590    43.6390     4.2780 O             1 RES     
    1487 Si          19.3750    41.1540     7.3020 Si            1 RES     
    1488 O           30.9560    11.5940     8.6360 O             1 RES     
    1489 OS          18.8340     9.1030    13.2000 OS            1 RES     
    1490 OS          18.5960    17.9340    13.0090 OS            1 RES     
    1491 O           46.4730     1.5150     3.5410 O             1 RES     
    1492 O           12.2390    25.8070     3.0760 O             1 RES     
    1493 O           34.3740    21.7230     2.4900 O             1 RES     
    1494 O            7.1170    49.6020     8.2970 O             1 RES     
    1495 O            7.2630    40.2660     5.4760 O             1 RES     
    1496 Si           5.9150    39.6130     6.0160 Si            1 RES     
    1497 O            3.6420    48.2090     1.7190 O             1 RES     
    1498 Si           9.3260    30.2780     8.7720 Si            1 RES     
    1499 O           21.8550    12.2470     7.6560 O             1 RES     
    1500 Si          32.0220    45.5090     3.4310 Si            1 RES     
    1501 Si          26.3280    36.2830     3.8650 Si            1 RES     
    1502 Si          29.2960    49.2110     4.6370 Si            1 RES     
    1503 Si           9.8470    49.8200    11.0250 Si            1 RES     
    1504 O           23.2350    37.5940     5.5630 O             1 RES     
    1505 O            4.4610     4.4630     6.6550 O             1 RES     
    1506 O           37.6840     4.5540     4.2990 O             1 RES     
    1507 O            8.1540    43.7040     6.2390 O             1 RES     
    1508 O           16.5850     3.8740     7.1990 O             1 RES     
    1509 Si          43.4070    14.0150     4.5790 Si            1 RES     
    1510 O           29.2980    38.8270     7.6790 O             1 RES     
    1511 O           29.3870    21.7350     9.2020 O             1 RES     
    1512 Si          19.1950    49.8120     3.6240 Si            1 RES     
    1513 O           38.6720    38.0910    11.0390 O             1 RES     
    1514 Si          37.7770    35.5230     8.0530 Si            1 RES     
    1515 O            0.8420    23.7000    11.6950 O             1 RES     
    1516 Si          45.3090    46.5390     8.6930 Si            1 RES     
    1517 O           40.1670    32.8790     5.9980 O             1 RES     
    1518 O           49.4920    12.2080     4.3130 O             1 RES     
    1519 Si          43.2470    18.1450     6.8110 Si            1 RES     
    1520 O            1.2610    45.9670     4.7330 O             1 RES     
    1521 O           20.5560     6.5140    11.2540 O             1 RES     
    1522 Si          46.4700    21.9070     5.5860 Si            1 RES     
    1523 O           33.7270     4.7470    11.2180 O             1 RES     
    1524 O           48.7680    39.6940    10.5490 O             1 RES     
    1525 Si           3.4020     1.0840     6.7640 Si            1 RES     
    1526 O           21.3330     1.8710    11.3530 O             1 RES     
    1527 O           35.5060    11.1090     6.4490 O             1 RES     
    1528 O           26.7580     4.1720     8.6430 O             1 RES     
    1529 OS          44.5140    28.1680    12.7980 OS            1 RES     
    1530 O           37.1250     4.6340     6.7400 O             1 RES     
    1531 Si          42.0090     8.7670     3.2600 Si            1 RES     
    1532 Si          46.1000    12.5440     4.5270 Si            1 RES     
    1533 OS          49.5030    40.8540    12.6370 OS            1 RES     
    1534 O           11.7300    11.3630    10.8470 O             1 RES     
    1535 Si          10.5060     3.9990     8.3070 Si            1 RES     
    1536 O           26.4340    42.8610    11.3620 O             1 RES     
    1537 OS          10.2690    20.2770    12.7150 OS            1 RES     
    1538 O            4.0880     6.5780     5.0410 O             1 RES     
    1539 Si           4.7960    45.1350     3.8250 Si            1 RES     
    1540 Si          17.2500    36.7620     5.3500 Si            1 RES     
    1541 O           22.6580    35.0170     8.1920 O             1 RES     
    1542 O            4.7760    11.3850     3.7570 O             1 RES     
    1543 Si           2.1730    30.1660    10.6390 Si            1 RES     
    1544 OS          29.6660     9.5910    12.2180 OS            1 RES     
    1545 O            3.1690    11.5260     1.8630 O             1 RES     
    1546 Si           1.5830    19.4170     6.7290 Si            1 RES     
    1547 Si           4.1910    30.4610     4.9740 Si            1 RES     
    1548 O           18.7420    19.2920     3.6040 O             1 RES     
    1549 OS          29.6860    44.8840    11.6080 OS            1 RES     
    1550 Si          21.1900    42.2330     4.8640 Si            1 RES     
    1551 O           30.7800    20.5740     4.9990 O             1 RES     
    1552 O           19.1700    19.3410     6.1340 O             1 RES     
    1553 Si          21.9210     5.8130    11.6850 Si            1 RES     
    1554 O           30.8090    16.9810     1.4340 O             1 RES     
    1555 O           19.2280    34.6030     2.8800 O             1 RES     
    1556 Si           4.1090     5.0000     5.1770 Si            1 RES     
    1557 O            6.3600    18.8940     8.8740 O             1 RES     
    1558 O            6.2940     0.6990     3.4020 O             1 RES     
    1559 O           15.1280     3.2530    11.2180 O             1 RES     
    1560 Si          24.5940    16.9940    10.8350 Si            1 RES     
    1561 Si          12.2190    47.6710     7.2280 Si            1 RES     
    1562 O           37.6340    43.1750     4.6860 O             1 RES     
    1563 OS          40.8040     9.0420    13.7160 OS            1 RES     
    1564 Si          27.3070    45.2360     8.2250 Si            1 RES     
    1565 O           33.9980    22.9060     7.6760 O             1 RES     
    1566 O           45.1190    37.2770     3.0810 O             1 RES     
    1567 O            6.8140    47.4990     9.5180 O             1 RES     
    1568 O           14.2680    43.1000     4.5660 O             1 RES     
    1569 O           41.9410    38.7310    11.1050 O             1 RES     
    1570 O            5.3760    40.2880     7.4140 O             1 RES     
    1571 O           40.1690    43.8500     4.6990 O             1 RES     
    1572 O           27.7100    40.7150     6.5120 O             1 RES     
    1573 O           40.9140    41.0570     8.2180 O             1 RES     
    1574 O           30.0460    40.2740     5.7160 O             1 RES     
    1575 O           17.3190    47.0070     3.5200 O             1 RES     
    1576 Si          32.9580     4.0070    10.1090 Si            1 RES     
    1577 Si          34.8320    34.0840    12.5900 Si            1 RES     
    1578 OS           7.6280    43.2180    13.5850 OS            1 RES     
    1579 Si          47.7210    26.6370     7.6180 Si            1 RES     
    1580 O           30.9160    26.5840     3.7620 O             1 RES     
    1581 O           23.9220    42.3280    12.3240 O             1 RES     
    1582 OS          25.8880    40.5100    13.6960 OS            1 RES     
    1583 O           36.9150    15.8830     8.6820 O             1 RES     
    1584 O           21.1230    47.8380     9.4230 O             1 RES     
    1585 O           44.2260     1.4090     2.5910 O             1 RES     
    1586 O           21.3940    24.2170     4.6260 O             1 RES     
    1587 O           38.1040    25.3190    12.6240 O             1 RES     
    1588 Si          32.5640    11.8050     8.6730 Si            1 RES     
    1589 O           33.7820    18.0900     7.4940 O             1 RES     
    1590 OS           9.2800    39.5730    11.9060 OS            1 RES     
    1591 O            1.9720     1.2120     6.1930 O             1 RES     
    1592 O           46.1200    47.9080     8.9550 O             1 RES     
    1593 O           15.0400    45.0910     8.8960 O             1 RES     
    1594 O           40.8230    25.8370     1.9520 O             1 RES     
    1595 O            5.1570    33.7200     3.2020 O             1 RES     
    1596 Si          43.0790    47.3120    11.1950 Si            1 RES     
    1597 O            9.7870    41.1050     4.7360 O             1 RES     
    1598 O            6.1870    10.7460     5.5900 O             1 RES     
    1599 O           34.0590    49.7060     8.3830 O             1 RES     
    1600 O           46.9490    42.9200     4.2110 O             1 RES     
    1601 O           40.5380    39.4770     3.5280 O             1 RES     
    1602 O           25.0980    48.5330     8.5770 O             1 RES     
    1603 Si          33.8420    45.4100     9.7360 Si            1 RES     
    1604 O            1.0700    29.6330     2.7850 O             1 RES     
    1605 O           31.7480    46.3360     4.7500 O             1 RES     
    1606 O           45.9950    25.4950     4.1030 O             1 RES     
    1607 Si          24.4620    20.2280     4.2260 Si            1 RES     
    1608 O            1.2180    40.0580    10.7650 O             1 RES     
    1609 O           49.7400    19.9800    10.4620 O             1 RES     
    1610 O           36.5850     7.6310    10.1330 O             1 RES     
    1611 O           32.3760    49.8430     3.1810 O             1 RES     
    1612 OS          29.5430    49.3210    12.4220 OS            1 RES     
    1613 Si          38.2170    48.4220    11.3390 Si            1 RES     
    1614 O           21.5430    31.5880     9.9880 O             1 RES     
    1615 O           34.2360    27.1980    10.1070 O             1 RES     
    1616 Si          28.9930     5.7800     3.1930 Si            1 RES     
    1617 O           16.7080    12.7920     9.7260 O             1 RES     
    1618 OS           8.3120    28.2320    12.0050 OS            1 RES     
    1619 Si          17.5100    25.8340    12.3960 Si            1 RES     
    1620 O           13.1120    45.4360     5.0930 O             1 RES     
    1621 O            8.6580    38.8890     7.8230 O             1 RES     
    1622 O           25.4570    30.2240     5.8030 O             1 RES     
    1623 OS          15.4610    30.9980    12.0200 OS            1 RES     
    1624 OS          20.9830    17.0100    12.4260 OS            1 RES     
    1625 O            2.5790    23.0990     5.9300 O             1 RES     
    1626 Si          23.6140    20.2550     7.2040 Si            1 RES     
    1627 O           12.8580    28.5260    10.3000 O             1 RES     
    1628 Si          49.4750    31.2930     5.8120 Si            1 RES     
    1629 O           30.2560     7.0160    13.1400 O             1 RES     
    1630 O            1.0510    42.4950     2.7780 O             1 RES     
    1631 O           47.2880    39.8280     7.4040 O             1 RES     
    1632 Si          18.5590    46.0310     6.8330 Si            1 RES     
    1633 Si          34.5940    12.1700     2.8700 Si            1 RES     
    1634 Si          22.8780    32.3050    10.6540 Si            1 RES     
    1635 O           40.5280    15.8970     7.9670 O             1 RES     
    1636 O           49.8640    21.4210    12.6100 O             1 RES     
    1637 Si          42.2390     3.0160     7.4680 Si            1 RES     
    1638 OS           3.7080    32.8340    13.4430 OS            1 RES     
    1639 OS           2.5300    34.7780    12.6110 OS            1 RES     
    1640 O           49.6160    16.5430    11.2260 O             1 RES     
    1641 Si          27.6710    25.6370    12.2540 Si            1 RES     
    1642 O            9.4760    25.8230     3.2250 O             1 RES     
    1643 OS          16.1200    18.1080    12.2320 OS            1 RES     
    1644 Si           2.5000    36.8800     8.8330 Si            1 RES     
    1645 O           10.4580    19.5140    10.2270 O             1 RES     
    1646 O           31.5910     0.4320    11.3760 O             1 RES     
    1647 O            6.2520     3.0190     2.5250 O             1 RES     
    1648 O           23.7620    20.4510     5.6460 O             1 RES     
    1649 O            6.4440    28.1370     2.6900 O             1 RES     
    1650 Si          32.9600    16.8100     7.8490 Si            1 RES     
    1651 O           45.8420    12.2230     2.9200 O             1 RES     
    1652 Si          32.2490    34.8590     5.3880 Si            1 RES     
    1653 O           43.5730    19.3770     5.9410 O             1 RES     
    1654 O           41.4800    11.2340    10.4330 O             1 RES     
    1655 O           27.1300    19.9590    11.9050 O             1 RES     
    1656 O           43.1120     9.0960     2.1700 O             1 RES     
    1657 O           15.5340    25.4820     8.9350 O             1 RES     
    1658 O           28.6790    23.3450     2.1370 O             1 RES     
    1659 O           44.5210    17.3100     6.5560 O             1 RES     
    1660 O           13.6740    44.1950     7.0730 O             1 RES     
    1661 OS          14.3730    14.0060    12.1490 OS            1 RES     
    1662 O           15.2320    24.6720     6.5390 O             1 RES     
    1663 O           10.0290     5.5380     8.3100 O             1 RES     
    1664 Si          25.5300    22.6310     7.8570 Si            1 RES     
    1665 O            2.1790    47.9090     3.7720 O             1 RES     
    1666 Si          28.9950    23.7520     5.4270 Si            1 RES     
    1667 Si           3.1650    10.6790    10.1300 Si            1 RES     
    1668 O           16.2890    28.8230     5.1010 O             1 RES     
    1669 O           17.3520    32.1840     7.5460 O             1 RES     
    1670 O           34.8070    39.4040     4.0380 O             1 RES     
    1671 Si          36.5260    42.5080     5.6500 Si            1 RES     
    1672 O           19.9540     6.7290     6.2850 O             1 RES     
    1673 O            4.6190    12.9200    13.5930 O             1 RES     
    1674 O            2.3390     4.1420     7.6210 O             1 RES     
    1675 O           41.9660    30.8780     9.8350 O             1 RES     
    1676 Si          35.8660    49.2400     2.9200 Si            1 RES     
    1677 O            8.7220    18.7280     5.6150 O             1 RES     
    1678 OS          14.6250     3.0450    13.8430 OS            1 RES     
    1679 Si          35.9630    37.4350     6.4760 Si            1 RES     
    1680 Si           5.4570    15.2780     7.5350 Si            1 RES     
    1681 OS          27.9400    14.5790    12.6080 OS            1 RES     
    1682 Si          43.3240    41.8310     3.2860 Si            1 RES     
    1683 Si          43.4030    46.2690     6.1900 Si            1 RES     
    1684 Si          29.6460    11.3040     7.7860 Si            1 RES     
    1685 O           36.5260    14.3320    10.5830 O             1 RES     
    1686 O           36.0060    43.7990     6.4990 O             1 RES     
    1687 Si           8.0120    14.4310     6.0600 Si            1 RES     
    1688 O           38.2490    18.3300     8.8490 O             1 RES     
    1689 O           43.7310    19.8350     3.3930 O             1 RES     
    1690 O           27.6680    35.9060     3.0870 O             1 RES     
    1691 O            0.4900    43.5340    10.0180 O             1 RES     
    1692 O           13.6420    35.4190     6.9260 O             1 RES     
    1693 O           12.7540    11.4440     2.6230 O             1 RES     
    1694 Si          12.9910    27.1330    10.9580 Si            1 RES     
    1695 Si          23.8630    45.8620    11.9930 Si            1 RES     
    1696 O           22.2970    48.3590     5.3120 O             1 RES     
    1697 Si          25.9610     5.2320     7.8690 Si            1 RES     
    1698 O           24.2940     1.8930     2.7680 O             1 RES     
    1699 O           16.4760    37.7040     4.3180 O             1 RES     
    1700 O           38.9960     6.4630     3.1540 O             1 RES     
    1701 Si          10.7150    31.6810    12.0640 Si            1 RES     
    1702 O           34.5510    35.6090    12.8760 O             1 RES     
    1703 Si          40.2900    17.2020     6.6710 Si            1 RES     
    1704 O            0.1750    17.8730     2.5890 O             1 RES     
    1705 O           44.9450    25.3230     1.8730 O             1 RES     
    1706 O           25.4540    16.6890     4.0590 O             1 RES     
    1707 O           21.2320    41.1290     3.7910 O             1 RES     
    1708 O           47.9910    20.1320     7.5240 O             1 RES     
    1709 O           28.9260     1.4310     7.6320 O             1 RES     
    1710 Si          24.1400     6.9550     9.6920 Si            1 RES     
    1711 Si          10.0460    45.8610    12.3140 Si            1 RES     
    1712 O           19.5920    46.6460     7.8140 O             1 RES     
    1713 O           49.2820    13.9790     6.4470 O             1 RES     
    1714 Si          32.7610    30.8370     8.0090 Si            1 RES     
    1715 OS          36.0280    19.1090    11.6440 OS            1 RES     
    1716 O           25.9280    36.2850     9.9660 O             1 RES     
    1717 Si           8.0890     9.1650     3.4690 Si            1 RES     
    1718 O            7.4840    43.0870     8.6110 O             1 RES     
    1719 O            1.1320    27.7500     4.4110 O             1 RES     
    1720 Si          41.8280    48.1740     7.9800 Si            1 RES     
    1721 Si          38.2600     9.3290     6.6120 Si            1 RES     
    1722 O           40.4440    45.0910    11.7210 O             1 RES     
    1723 O           22.1720    28.9880    12.0870 O             1 RES     
    1724 O           22.5850    42.3680     5.5940 O             1 RES     
    1725 OS           6.3640     0.9860    13.3560 OS            1 RES     
    1726 O           21.1010    18.6210     4.3820 O             1 RES     
    1727 O           28.6020    25.5380    10.9880 O             1 RES     
    1728 Si          45.1290    16.0420     5.8950 Si            1 RES     
    1729 OS          48.0560    45.4530    12.2910 OS            1 RES     
    1730 O           13.8490    13.9900     5.4690 O             1 RES     
    1731 Si          41.6930    22.5180     5.2840 Si            1 RES     
    1732 O            7.7250    10.1780     9.7690 O             1 RES     
    1733 O           15.1780    41.4640     6.7210 O             1 RES     
    1734 O            0.5540    24.3760     6.7230 O             1 RES     
    1735 Si          38.2510    39.6490    11.1770 Si            1 RES     
    1736 O           13.2470     4.9020     3.6700 O             1 RES     
    1737 O           37.0490     8.3670     5.3170 O             1 RES     
    1738 O           18.5340     9.5700     4.7320 O             1 RES     
    1739 O           28.1010     7.5450     8.9600 O             1 RES     
    1740 O            4.4450    49.1510     3.9220 O             1 RES     
    1741 Si          34.1500     0.2340     6.9910 Si            1 RES     
    1742 O           28.9690     0.5530     5.4100 O             1 RES     
    1743 O           25.2910    45.2430    11.4690 O             1 RES     
    1744 OS          48.5810     0.0460    12.8100 OS            1 RES     
    1745 O            9.1010    41.7060     7.7430 O             1 RES     
    1746 OS          48.7460    16.5420    13.5350 OS            1 RES     
    1747 O            2.8580    31.2520    11.5010 O             1 RES     
    1748 O           28.9490    32.9340     4.0500 O             1 RES     
    1749 Si          46.1820    13.6870    12.6920 Si            1 RES     
    1750 O           22.4060    27.0210     4.5720 O             1 RES     
    1751 O           32.4200    22.4380     3.8130 O             1 RES     
    1752 Si          19.3320    37.9810     7.2560 Si            1 RES     
    1753 OS          13.0730    33.9140    13.3170 OS            1 RES     
    1754 OS           1.1850    49.5760    12.8470 OS            1 RES     
    1755 Si          23.2730    36.9670    11.8210 Si            1 RES     
    1756 O           25.0460    37.2640     7.3890 O             1 RES     
    1757 O           14.9480    19.2350     6.0250 O             1 RES     
    1758 O           20.8760    30.5270     2.4170 O             1 RES     
    1759 Si          47.2880    48.5670     9.7450 Si            1 RES     
    1760 Si          39.1580     5.4970    12.3780 Si            1 RES     
    1761 O            6.1050    35.7080     4.4190 O             1 RES     
    1762 Si          15.4760    20.6070     6.7620 Si            1 RES     
    1763 O           14.5900    33.3570    11.3350 O             1 RES     
    1764 Si          17.0470     0.9500    12.4370 Si            1 RES     
    1765 O            2.3170     7.2640     8.3850 O             1 RES     
    1766 O            9.0200    36.3940     7.3610 O             1 RES     
    1767 OS           0.4130    36.1710    11.9020 OS            1 RES     
    1768 O            7.3160    17.2230    10.7510 O             1 RES     
    1769 O           48.3180    49.4250     8.8890 O             1 RES     
    1770 Si          46.3050     7.2390    11.5810 Si            1 RES     
    1771 Si           0.9870    22.4530    12.7220 Si            1 RES     
    1772 O           26.4740    16.1000     1.6920 O             1 RES     
    1773 O            8.1300     3.5870    11.1090 O             1 RES     
    1774 O           43.5260     5.4500    13.6310 O             1 RES     
    1775 O           12.0960     9.1050     6.9030 O             1 RES     
    1776 Si          34.7290    19.2200    10.7460 Si            1 RES     
    1777 O            9.8690    36.6850     4.6570 O             1 RES     
    1778 O           41.9290    17.3280     6.3350 O             1 RES     
    1779 O            9.4350    46.6280     4.5100 O             1 RES     
    1780 O           40.4240     8.4670     2.8820 O             1 RES     
    1781 Si          26.2590     7.5200    11.9100 Si            1 RES     
    1782 O           32.8230    46.4750     9.3520 O             1 RES     
    1783 Si           6.6160    22.6860     3.5980 Si            1 RES     
    1784 O           27.6590    26.8770     8.9330 O             1 RES     
    1785 Si          15.6720    43.1520     3.8470 Si            1 RES     
    1786 O           44.8030    25.8370     6.1180 O             1 RES     
    1787 O           12.3800     0.3960     4.1410 O             1 RES     
    1788 O           39.3280    74.2340     3.1580 O             1 RES     
    1789 O            8.4580    98.5390     6.1960 O             1 RES     
    1790 O            9.9370    84.3450     9.7080 O             1 RES     
    1791 O           27.9310    70.9500     2.9650 O             1 RES     
    1792 Si          34.0510    71.9090     6.4800 Si            1 RES     
    1793 O           31.4160    67.1410     7.9150 O             1 RES     
    1794 O            7.4230    75.4710     6.7820 O             1 RES     
    1795 O           47.1120    53.1090     5.5400 O             1 RES     
    1796 O           32.8980    57.8050     9.9470 O             1 RES     
    1797 Si          38.7810    61.9610     4.5220 Si            1 RES     
    1798 O           28.2200    57.4620    11.4690 O             1 RES     
    1799 O           41.5420    72.2820     9.1930 O             1 RES     
    1800 Si           1.2140    76.3900     3.6200 Si            1 RES     
    1801 O           32.1660    92.1050     9.0280 O             1 RES     
    1802 O           26.2930    96.3710     7.6460 O             1 RES     
    1803 O           17.5360    75.3840     7.5700 O             1 RES     
    1804 Si          37.4340    54.1390     8.1680 Si            1 RES     
    1805 O           35.4360    82.8570     8.7280 O             1 RES     
    1806 O           23.7070    74.5910     4.9950 O             1 RES     
    1807 O            9.6650    81.9680     5.7910 O             1 RES     
    1808 Si          45.4860    72.8860    10.2000 Si            1 RES     
    1809 Si          19.9930    68.2280    12.3350 Si            1 RES     
    1810 O           24.5250    80.7410     7.9630 O             1 RES     
    1811 O           32.6640    91.9310    11.4990 O             1 RES     
    1812 O            6.5590    77.3500     5.0100 O             1 RES     
    1813 Si           8.9520    83.0600     4.9870 Si            1 RES     
    1814 O           40.1130    75.9410     9.7650 O             1 RES     
    1815 O           20.6210    87.5380     6.4480 O             1 RES     
    1816 Si          24.6920    79.4830     6.9840 Si            1 RES     
    1817 Si          19.3940    65.7420     5.6330 Si            1 RES     
    1818 O           29.8760    61.7970     6.2890 O             1 RES     
    1819 O           37.9360    80.6050     3.1040 O             1 RES     
    1820 O           49.3000    93.1650     4.7740 O             1 RES     
    1821 O           49.2410    65.4300     8.7790 O             1 RES     
    1822 Si          16.0040    75.6960     7.5250 Si            1 RES     
    1823 O           10.2360    53.4110     9.6970 O             1 RES     
    1824 O           43.4210    78.2730     6.3950 O             1 RES     
    1825 O            0.1870    90.6520     3.9740 O             1 RES     
    1826 O           11.9330    86.8760     3.0060 O             1 RES     
    1827 Si          43.8870    50.3740     7.3530 Si            1 RES     
    1828 O           23.3580    62.3080    11.7210 O             1 RES     
    1829 Si          25.3870    91.5760    12.4880 Si            1 RES     
    1830 O           46.0860    71.2950     7.0170 O             1 RES     
    1831 O           21.7340    56.6160     4.3500 O             1 RES     
    1832 O           23.6280    88.4180    11.4120 O             1 RES     
    1833 O           48.4240    80.3200     6.4430 O             1 RES     
    1834 O           14.8410    73.7240    11.1040 O             1 RES     
    1835 O           13.8720    57.7270     8.0010 O             1 RES     
    1836 O           42.9320    85.6550     5.0210 O             1 RES     
    1837 Si          14.9580    72.2990    11.7660 Si            1 RES     
    1838 Si           1.3660    73.9370     5.4410 Si            1 RES     
    1839 O           17.8410    87.7820    13.0870 O             1 RES     
    1840 O            2.1070    95.4170     9.4240 O             1 RES     
    1841 Si          23.7100    78.9220    12.3920 Si            1 RES     
    1842 O           38.9530    85.4330    11.0830 O             1 RES     
    1843 O           18.9750    87.1960     8.6150 O             1 RES     
    1844 O           20.4090    99.8920     4.6600 O             1 RES     
    1845 OS          45.0010    86.9310    13.7540 OS            1 RES     
    1846 O           46.3590    88.6730     9.4100 O             1 RES     
    1847 Si          30.3630    92.9570     3.6210 Si            1 RES     
    1848 O           22.5390    50.6400     1.6870 O             1 RES     
    1849 Si          47.8950    93.8810     5.0840 Si            1 RES     
    1850 O           21.7380    95.4450     8.6830 O             1 RES     
    1851 O           29.7260    84.7920    11.3840 O             1 RES     
    1852 O           28.0750    55.0820    10.5820 O             1 RES     
    1853 Si          24.9300    97.1050     7.6980 Si            1 RES     
    1854 O           49.2420    97.3080     4.1190 O             1 RES     
    1855 O           30.4550    57.1310    10.0400 O             1 RES     
    1856 Si          23.1700    57.2460     4.4180 Si            1 RES     
    1857 O           22.6910    90.0080     9.8390 O             1 RES     
    1858 O            9.2430    84.4260     5.6130 O             1 RES     
    1859 Si          35.9510    95.0840     7.4200 Si            1 RES     
    1860 O           13.0020    64.6690    10.0680 O             1 RES     
    1861 Si          22.3030    68.2180     3.4300 Si            1 RES     
    1862 O           38.6920    94.6600     9.9650 O             1 RES     
    1863 Si           5.3750    86.6310     5.4460 Si            1 RES     
    1864 O           31.6610    56.9240     7.6810 O             1 RES     
    1865 OS           2.1040    94.4950    11.9170 OS            1 RES     
    1866 O           33.2710    87.6820     4.3090 O             1 RES     
    1867 O           34.7990    91.8550    10.2240 O             1 RES     
    1868 Si          20.4020    95.1770     4.5950 Si            1 RES     
    1869 Si          30.0820    67.9670     7.9450 Si            1 RES     
    1870 O           30.5780    93.3520     7.2540 O             1 RES     
    1871 O           19.3900    82.4830    10.8440 O             1 RES     
    1872 O           38.7970    97.0110    10.9690 O             1 RES     
    1873 Si          39.4990    69.3740     8.7080 Si            1 RES     
    1874 O           42.9490    88.5760     2.4350 O             1 RES     
    1875 Si           3.8240    79.5800     7.9930 Si            1 RES     
    1876 O           37.3440    58.4030     7.9400 O             1 RES     
    1877 O           15.1020    87.0500     8.0510 O             1 RES     
    1878 O            9.6790    53.5510     2.8980 O             1 RES     
    1879 O           31.5790    93.9430     3.5960 O             1 RES     
    1880 Si          35.8900    62.3490     5.6510 Si            1 RES     
    1881 O            4.2640    59.0260     4.7800 O             1 RES     
    1882 O           44.0270    65.3980     4.9560 O             1 RES     
    1883 OS          38.3090    83.0360    11.9640 OS            1 RES     
    1884 Si          32.8510    79.5180    12.2650 Si            1 RES     
    1885 O           22.9350    91.4540     7.9210 O             1 RES     
    1886 O           30.0370    99.7050     3.3810 O             1 RES     
    1887 Si           3.5000    88.7530     4.4320 Si            1 RES     
    1888 O           38.2010    60.6540     7.5920 O             1 RES     
    1889 O            9.7210    94.1600     8.4230 O             1 RES     
    1890 O           38.4650    75.9060     8.1340 O             1 RES     
    1891 O            6.0940    66.2190     8.6880 O             1 RES     
    1892 OS          41.3560    86.3370    10.0850 OS            1 RES     
    1893 Si          15.1630    85.7140     7.3010 Si            1 RES     
    1894 OS           7.6490    66.0520    13.1470 OS            1 RES     
    1895 O           31.1850    57.8320     5.0870 O             1 RES     
    1896 O           24.1550    96.1000     8.5750 O             1 RES     
    1897 O            8.2810    56.0230    12.1260 O             1 RES     
    1898 O           45.3310    74.4320     9.8760 O             1 RES     
    1899 Si          25.6960    87.4590     8.8510 Si            1 RES     
    1900 O            2.2070    63.1450    12.8520 O             1 RES     
    1901 Si          15.9380    82.7240     8.1010 Si            1 RES     
    1902 Si           7.5200    94.1720    12.3700 Si            1 RES     
    1903 O           30.4440    73.0700     5.2210 O             1 RES     
    1904 O           46.7050    97.7370     5.0130 O             1 RES     
    1905 O           11.4490    57.4630     8.7760 O             1 RES     
    1906 Si          23.7950    51.6760     6.8390 Si            1 RES     
    1907 O            2.8600    80.0720     9.2260 O             1 RES     
    1908 Si          21.9800    80.9280     3.3940 Si            1 RES     
    1909 O           24.3500    68.9630     7.6670 O             1 RES     
    1910 O            8.7010    66.3040     2.2870 O             1 RES     
    1911 Si          22.5320    75.0840     4.1390 Si            1 RES     
    1912 O            3.2820    59.1310    10.0050 O             1 RES     
    1913 Si          18.5560    83.6670    11.4620 Si            1 RES     
    1914 O           39.1110    71.6780     2.3750 O             1 RES     
    1915 O           17.6690    79.6720     7.1160 O             1 RES     
    1916 Si          20.2150    56.4960     4.7090 Si            1 RES     
    1917 Si          26.0590    90.8180     5.8490 Si            1 RES     
    1918 O           28.9650    88.7850    10.2090 O             1 RES     
    1919 O           40.1500    66.6990     2.3940 O             1 RES     
    1920 Si          49.4280    50.5340     8.6050 Si            1 RES     
    1921 O            4.7720    71.7590     6.4550 O             1 RES     
    1922 O           24.2530    83.2980     7.8670 O             1 RES     
    1923 Si          10.7020    80.7490     6.1000 Si            1 RES     
    1924 O           42.6700    55.6730     5.2900 O             1 RES     
    1925 Si          14.2700    99.9640    11.6860 Si            1 RES     
    1926 O            6.6100    71.1300    10.0300 O             1 RES     
    1927 O           49.4510    61.8250    10.8060 O             1 RES     
    1928 O           41.1260    63.8420     9.8870 O             1 RES     
    1929 O           45.6810    65.0260     7.0230 O             1 RES     
    1930 O           46.7460    76.3010     8.8480 O             1 RES     
    1931 O           27.8520    80.1570     5.1630 O             1 RES     
    1932 O           14.0080    66.7380     5.3380 O             1 RES     
    1933 O           27.0560    91.8310     1.9940 O             1 RES     
    1934 Si          13.3490    74.6240     3.2190 Si            1 RES     
    1935 O           25.9020    84.8710     4.4290 O             1 RES     
    1936 O           20.1230    54.8830     4.5910 O             1 RES     
    1937 O           34.1470    65.1210    11.3000 O             1 RES     
    1938 Si           1.3730    72.1510     2.9220 Si            1 RES     
    1939 O           49.7900    75.9860     3.1710 O             1 RES     
    1940 O           32.2150    77.3290     8.7490 O             1 RES     
    1941 O           42.4190    63.5680     5.7240 O             1 RES     
    1942 O           37.2140    55.2770     9.2580 O             1 RES     
    1943 OS           0.6460    77.9250    13.3760 OS            1 RES     
    1944 Si           0.8110    69.1590     9.6580 Si            1 RES     
    1945 O           30.5330    68.1760     4.0030 O             1 RES     
    1946 O           41.9850    83.4010     8.8860 O             1 RES     
    1947 OS           6.9590    88.8170    12.1150 OS            1 RES     
    1948 O           23.5630    78.8290     6.0310 O             1 RES     
    1949 Si          36.8960    56.1620    10.4730 Si            1 RES     
    1950 OS          30.9060    92.8970    12.8760 OS            1 RES     
    1951 O           22.3450    83.7720    10.4280 O             1 RES     
    1952 Si          38.7720    99.4470     3.8340 Si            1 RES     
    1953 Si          20.6320    78.6790    11.6590 Si            1 RES     
    1954 O           29.1060    59.9070     8.0490 O             1 RES     
    1955 O            4.3300    66.1090     6.8260 O             1 RES     
    1956 Si          46.1970    58.4660     8.6420 Si            1 RES     
    1957 O           31.4770    70.9200    10.3250 O             1 RES     
    1958 O           23.6740    63.7090     7.1970 O             1 RES     
    1959 O           25.7850    66.0530    11.2930 O             1 RES     
    1960 Si          25.0720    52.0650    11.2810 Si            1 RES     
    1961 O            6.5130    62.3630    10.0980 O             1 RES     
    1962 O           31.2430    76.1310     6.4910 O             1 RES     
    1963 O           29.5560    93.4330     4.9100 O             1 RES     
    1964 O            5.5290    79.6980     4.5780 O             1 RES     
    1965 Si          12.1290    79.9390     9.9840 Si            1 RES     
    1966 Si          42.9810    92.5610    10.5600 Si            1 RES     
    1967 O            0.0220    64.5270     4.1100 O             1 RES     
    1968 O           27.5270    56.1070     3.8020 O             1 RES     
    1969 OS          12.7250    53.7090    12.4850 OS            1 RES     
    1970 Si           9.4180    52.8310    10.8570 Si            1 RES     
    1971 O           31.6600    86.1520    10.5500 O             1 RES     
    1972 Si          18.5290    81.0570     7.4200 Si            1 RES     
    1973 OS          22.9530    95.1110    10.9490 OS            1 RES     
    1974 O           47.5310    78.1790     7.5710 O             1 RES     
    1975 O           22.0970    52.9560     3.5790 O             1 RES     
    1976 O           23.9750    97.1680     6.4300 O             1 RES     
    1977 Si          35.6350    57.7970     5.0950 Si            1 RES     
    1978 Si          15.2560    75.1420    10.4270 Si            1 RES     
    1979 O           18.6580    85.0890    10.6360 O             1 RES     
    1980 OS          20.2660    87.5690    13.8000 OS            1 RES     
    1981 O           29.7200    68.0810    12.3670 O             1 RES     
    1982 O           26.0000    69.8770     4.2940 O             1 RES     
    1983 O           41.0400    52.2550     8.1180 O             1 RES     
    1984 Si          26.5050    59.2230     5.5330 Si            1 RES     
    1985 O           36.9120    90.4130    10.7990 O             1 RES     
    1986 O           20.7340    65.2520     4.9050 O             1 RES     
    1987 O           19.4960    68.3400    10.8120 O             1 RES     
    1988 O           22.9330    52.9620     7.0930 O             1 RES     
    1989 OS          46.3160    98.9330    13.3120 OS            1 RES     
    1990 O           25.5590    73.5770     6.4960 O             1 RES     
    1991 O           34.9440    98.6380    11.0810 O             1 RES     
    1992 Si          25.5740    69.7440    11.9030 Si            1 RES     
    1993 O            0.6750    80.5180    10.5840 O             1 RES     
    1994 Si          19.9420    56.1710     7.7720 Si            1 RES     
    1995 Si          23.1990    62.0790     3.8050 Si            1 RES     
    1996 O           30.8380    55.4450     5.9680 O             1 RES     
    1997 O           45.9100    57.5290     7.3860 O             1 RES     
    1998 Si           3.6840    62.8230    12.3480 Si            1 RES     
    1999 OS          18.8100    94.6700    12.2700 OS            1 RES     
    2000 Si          38.0060    61.3040     9.0220 Si            1 RES     
    2001 O           20.9740    86.1480     4.3800 O             1 RES     
    2002 O           33.5230    95.4890     2.9160 O             1 RES     
    2003 O           23.1790    81.3580     2.5010 O             1 RES     
    2004 Si           9.2410    95.5480     3.3790 Si            1 RES     
    2005 Si          34.3650    55.5360    12.3320 Si            1 RES     
    2006 Si          39.6160    75.8090     3.1450 Si            1 RES     
    2007 O           28.8550    66.9830     8.2740 O             1 RES     
    2008 Si          10.8730    75.4460     9.4090 Si            1 RES     
    2009 OS           2.9380    77.3670    13.5110 OS            1 RES     
    2010 OS          33.3940    95.2420    13.7960 OS            1 RES     
    2011 Si          45.8650    81.8970     2.7980 Si            1 RES     
    2012 O           43.3990    55.4610    10.9030 O             1 RES     
    2013 O           45.3100    82.5620     6.9560 O             1 RES     
    2014 O           21.8170    95.9040     5.1190 O             1 RES     
    2015 O           42.0710    97.7170     9.4400 O             1 RES     
    2016 Si          35.4420    82.0520     7.3890 Si            1 RES     
    2017 O           45.1310    64.1860     9.3770 O             1 RES     
    2018 O           13.7230    51.3210    12.2550 O             1 RES     
    2019 O           28.4180    62.2310     8.3410 O             1 RES     
    2020 O           48.1150    53.6560     3.2300 O             1 RES     
    2021 O           24.3630    71.2010     2.9820 O             1 RES     
    2022 Si           0.4750    89.2730     4.6870 Si            1 RES     
    2023 Si          49.8290    67.2240    12.6160 Si            1 RES     
    2024 O           11.8830    92.9360     5.5030 O             1 RES     
    2025 O           48.1000    68.5900     5.2710 O             1 RES     
    2026 Si          13.5760    95.1310     8.3190 Si            1 RES     
    2027 O            7.9420    79.6150     8.5510 O             1 RES     
    2028 O           19.4490    66.2870     9.2650 O             1 RES     
    2029 O           21.8720    83.0660     6.7000 O             1 RES     
    2030 Si          28.1680    82.5160     7.8900 Si            1 RES     
    2031 O            9.3260    64.7530     6.8240 O             1 RES     
    2032 Si          33.4080    73.7200     8.8770 Si            1 RES     
    2033 O           22.0920    70.6210     7.5910 O             1 RES     
    2034 O            3.4620    56.4040    10.5250 O             1 RES     
    2035 Si          37.3120    74.5400    11.4470 Si            1 RES     
    2036 O           26.2140    75.8960    11.8030 O             1 RES     
    2037 Si          39.0690    67.2800     3.3630 Si            1 RES     
    2038 O           38.6180    84.2620     4.5350 O             1 RES     
    2039 Si          37.6040    84.2130     3.3530 Si            1 RES     
    2040 O            0.7970    92.5890     7.7990 O             1 RES     
    2041 O           22.2110    63.2820     3.8790 O             1 RES     
    2042 O            3.3010    92.0190     7.2270 O             1 RES     
    2043 O           42.6960    90.5310     3.8590 O             1 RES     
    2044 Si          17.0000    55.1450     8.0970 Si            1 RES     
    2045 O           47.1890    75.8760     6.4000 O             1 RES     
    2046 O           42.6210    68.3830    10.7470 O             1 RES     
    2047 O            8.0760    65.1190     4.6190 O             1 RES     
    2048 Si          45.0950    88.4250    10.3500 Si            1 RES     
    2049 O           45.8150    50.0320     1.4580 O             1 RES     
    2050 Si          12.9980    81.8610     7.7030 Si            1 RES     
    2051 O           18.4430    68.7220     8.4660 O             1 RES     
    2052 O           24.4370    66.7460     6.5860 O             1 RES     
    2053 Si          14.9540    62.9100     6.0530 Si            1 RES     
    2054 O           14.9650    68.7910     9.9840 O             1 RES     
    2055 Si          24.7280    76.1950    11.4530 Si            1 RES     
    2056 O           47.3630    82.9210     8.3330 O             1 RES     
    2057 O           32.0960    66.7640    11.4900 O             1 RES     
    2058 O           34.8860    97.1780    12.9650 O             1 RES     
    2059 O           12.7500    65.3170     3.5650 O             1 RES     
    2060 O           35.1600    91.7720     5.1760 O             1 RES     
    2061 O           46.3020    93.3040     9.1230 O             1 RES     
    2062 O           21.4630    64.5980     8.6160 O             1 RES     
    2063 O           38.8250    97.9060     3.5560 O             1 RES     
    2064 O           33.4650    51.9990     3.7860 O             1 RES     
    2065 O           27.3030    64.6550     8.4230 O             1 RES     
    2066 O           24.3010    77.5890    11.8080 O             1 RES     
    2067 O           18.4060    97.3430    11.6440 O             1 RES     
    2068 O            6.4100    69.6400     5.3440 O             1 RES     
    2069 O           19.7470    78.5850    12.9640 O             1 RES     
    2070 O            9.7490    97.1610    13.2240 O             1 RES     
    2071 Si          48.5780    69.7920     6.0330 Si            1 RES     
    2072 Si          13.2120    56.2720     4.4060 Si            1 RES     
    2073 Si          38.8670    93.7710     3.9090 Si            1 RES     
    2074 O           16.1730    85.9180     6.1790 O             1 RES     
    2075 Si          46.9800    52.9410     3.9820 Si            1 RES     
    2076 O           16.4210    98.9450     5.2640 O             1 RES     
    2077 Si          28.4320    50.9860     9.0180 Si            1 RES     
    2078 O            3.7910    69.2340    12.2220 O             1 RES     
    2079 Si          37.3810    64.3720     9.2660 Si            1 RES     
    2080 O           39.6090    67.1140     4.7570 O             1 RES     
    2081 O           18.9850    73.2030     4.9360 O             1 RES     
    2082 O           33.3830    79.5890     8.6530 O             1 RES     
    2083 Si           6.5040    84.3540     3.6440 Si            1 RES     
    2084 Si          21.8010    73.4750    10.1490 Si            1 RES     
    2085 O           32.1880    52.9370    11.0530 O             1 RES     
    2086 O           48.2850    87.1040     8.2830 O             1 RES     
    2087 OS          41.0400    52.3510    12.7430 OS            1 RES     
    2088 O           21.6560    65.2860     2.4880 O             1 RES     
    2089 Si          23.6110    92.4730     6.8000 Si            1 RES     
    2090 Si          39.1900    74.7630     8.9630 Si            1 RES     
    2091 OS          23.5860    97.4960    12.0860 OS            1 RES     
    2092 OS          35.6550    94.6830    12.9390 OS            1 RES     
    2093 O           38.8090    60.5150     5.0240 O             1 RES     
    2094 Si           7.5450    67.4300    12.2700 Si            1 RES     
    2095 O           11.9280    60.0130     4.3980 O             1 RES     
    2096 O           47.4460    62.9720    12.0550 O             1 RES     
    2097 O           16.4350    51.3450     6.4240 O             1 RES     
    2098 Si          10.3130    61.8920    10.4020 Si            1 RES     
    2099 OS          11.2070    82.3640    13.4470 OS            1 RES     
    2100 O           23.7810    96.8420     3.9060 O             1 RES     
    2101 OS          32.3080    90.5490    13.5250 OS            1 RES     
    2102 Si          14.6130    89.8490    10.8620 Si            1 RES     
    2103 Si           9.0190    54.2510     4.0900 Si            1 RES     
    2104 O           25.1120    64.6520     5.4390 O             1 RES     
    2105 Si          44.0140    86.7140     7.7550 Si            1 RES     
    2106 OS          48.1550    60.7840    12.7930 OS            1 RES     
    2107 OS          14.5800    60.1050    13.9600 OS            1 RES     
    2108 OS          30.2540    65.4520    12.2440 OS            1 RES     
    2109 O           15.1430    89.4530     9.4470 O             1 RES     
    2110 Si          26.1430    53.1790     5.5820 Si            1 RES     
    2111 O            0.4530    53.1480     6.2690 O             1 RES     
    2112 O           46.8350    99.3910    10.9860 O             1 RES     
    2113 O            4.0590    86.5990     8.4880 O             1 RES     
    2114 Si          21.9700    64.8470     4.0010 Si            1 RES     
    2115 Si           5.4830    71.8870    10.9520 Si            1 RES     
    2116 O           12.9610    66.0130    12.0790 O             1 RES     
    2117 Si          18.5110    95.7810    11.1700 Si            1 RES     
    2118 OS          26.1120    56.5300    13.1560 OS            1 RES     
    2119 O           28.9550    61.6580     3.8450 O             1 RES     
    2120 O           16.8570    54.4800     9.5660 O             1 RES     
    2121 O           12.2070    81.3180     6.4880 O             1 RES     
    2122 Si           3.6610    97.9890     3.2660 Si            1 RES     
    2123 O            2.3810    88.3960     9.2630 O             1 RES     
    2124 O           16.4770    93.0330     5.4360 O             1 RES     
    2125 O            8.4010    87.8400     9.9930 O             1 RES     
    2126 Si          35.2360    76.0960     9.8200 Si            1 RES     
    2127 OS          41.6370    98.2940    12.0470 OS            1 RES     
    2128 O           28.3920    95.5220     9.3080 O             1 RES     
    2129 Si           8.7650    59.9060     8.6400 Si            1 RES     
    2130 Si          31.1860    90.2060     4.6190 Si            1 RES     
    2131 O           33.9620    59.7730    11.3540 O             1 RES     
    2132 Si          29.9290    88.9810    11.4220 Si            1 RES     
    2133 O           46.4470    95.4640     8.5700 O             1 RES     
    2134 O            3.8460    99.6770    12.4230 O             1 RES     
    2135 O           11.9350    76.3070    10.1220 O             1 RES     
    2136 O           34.7310    87.0780     7.2970 O             1 RES     
    2137 O            9.9940    82.7270     3.7510 O             1 RES     
    2138 OS          45.7050    62.9940    13.9360 OS            1 RES     
    2139 Si          18.4620    69.7870     7.3990 Si            1 RES     
    2140 O           11.2240    85.5340     6.4810 O             1 RES     
    2141 O           43.9110    60.6470     6.2750 O             1 RES     
    2142 O           45.5200    86.9650     7.4450 O             1 RES     
    2143 O           42.3600    97.1630     6.9220 O             1 RES     
    2144 Si          38.2540    93.6100     8.9210 Si            1 RES     
    2145 O            3.3950    61.3600    11.7150 O             1 RES     
    2146 Si           6.1610    54.5190     2.9570 Si            1 RES     
    2147 Si          35.9990    54.7990     5.4630 Si            1 RES     
    2148 O           40.4460    58.8940    11.2490 O             1 RES     
    2149 Si          36.3780    58.7640     9.1110 Si            1 RES     
    2150 Si           1.8180    77.6390    12.3530 Si            1 RES     
    2151 OS          47.8010    87.1470    12.8070 OS            1 RES     
    2152 OS          11.1920    95.1340    13.1630 OS            1 RES     
    2153 O           48.1120    97.4380    10.4120 O             1 RES     
    2154 O           39.5130    70.8610     8.2070 O             1 RES     
    2155 O            7.0610    53.7190    13.2660 O             1 RES     
    2156 O           26.4280    84.1630    11.4740 O             1 RES     
    2157 Si          33.3770    53.5300     3.4640 Si            1 RES     
    2158 O           16.2090    78.5900     2.5190 O             1 RES     
    2159 O           36.1180    98.2970     8.6890 O             1 RES     
    2160 O           46.7490    67.9500     3.0500 O             1 RES     
    2161 O           41.6860    92.9810     6.6740 O             1 RES     
    2162 O           37.4760    62.5040     5.3120 O             1 RES     
    2163 Si          24.7900    63.2300     6.2040 Si            1 RES     
    2164 O           38.1530    54.6200    13.3710 O             1 RES     
    2165 O            9.6770    82.6350    11.3050 O             1 RES     
    2166 Si          33.9690    72.8690     3.4780 Si            1 RES     
    2167 O           43.9820    87.9620     9.3120 O             1 RES     
    2168 Si          12.2740    84.9140     7.4100 Si            1 RES     
    2169 O           25.0010    68.4920    11.1670 O             1 RES     
    2170 O            2.7600    74.2130    10.4020 O             1 RES     
    2171 O           42.9580    76.1660    11.8200 O             1 RES     
    2172 O           45.1440    64.4450    11.7480 O             1 RES     
    2173 Si          40.0110    89.8830     8.6920 Si            1 RES     
    2174 OS           4.8870    80.6080    12.7110 OS            1 RES     
    2175 O           36.7400    79.8300     5.2550 O             1 RES     
    2176 Si          16.6150    94.7830     8.8650 Si            1 RES     
    2177 O           14.1100    61.8590     9.6930 O             1 RES     
    2178 O            2.0850    94.1560     6.4310 O             1 RES     
    2179 OS          39.2760    99.2800    12.1610 OS            1 RES     
    2180 Si          39.0470    95.4520    11.2560 Si            1 RES     
    2181 Si          46.1120    92.6170    10.5030 Si            1 RES     
    2182 Si          15.9470    52.3680     7.5480 Si            1 RES     
    2183 O            9.2800    73.5000     7.5290 O             1 RES     
    2184 OS          40.7000    84.4120    12.2590 OS            1 RES     
    2185 OS          37.3970    99.2820    10.3440 OS            1 RES     
    2186 O           27.2990    59.9210     4.3170 O             1 RES     
    2187 O           47.5000    67.2100     9.6140 O             1 RES     
    2188 O           10.7770    90.0520     8.7900 O             1 RES     
    2189 Si          24.9320    74.8970     5.9010 Si            1 RES     
    2190 Si          46.2280    86.8130    12.7060 Si            1 RES     
    2191 OS          17.5710    57.1020    13.6460 OS            1 RES     
    2192 O            3.9580    81.7320     3.9260 O             1 RES     
    2193 O           30.0340    98.1820     5.4990 O             1 RES     
    2194 Si           2.3960    50.3410    12.1610 Si            1 RES     
    2195 Si           1.3740    74.8670    10.7920 Si            1 RES     
    2196 O           32.8560    64.0160     5.4360 O             1 RES     
    2197 O            5.0360    82.8140    11.2680 O             1 RES     
    2198 O            4.3950    51.0660     5.6080 O             1 RES     
    2199 Si          11.4700    64.6680     9.6650 Si            1 RES     
    2200 O           45.4260    62.4360     7.7160 O             1 RES     
    2201 Si          39.5160    83.9090    11.3150 Si            1 RES     
    2202 O           42.7260    95.9040    11.9400 O             1 RES     
    2203 OS          21.7830    55.7500    13.3060 OS            1 RES     
    2204 O            3.4140    90.7410     9.3500 O             1 RES     
    2205 O           34.3490    82.3610     3.7950 O             1 RES     
    2206 OS           4.0670    95.7170    13.0380 OS            1 RES     
    2207 O           16.5320    75.6030    11.2150 O             1 RES     
    2208 O            8.3430    90.2150     9.8420 O             1 RES     
    2209 O            4.0360    75.3720     8.7120 O             1 RES     
    2210 O           30.6800    95.8030     9.3590 O             1 RES     
    2211 O           10.0900    60.7120     6.1550 O             1 RES     
    2212 O           19.1940    67.1920     5.2050 O             1 RES     
    2213 O           37.1160    98.2080    12.3700 O             1 RES     
    2214 Si          11.3670    66.3290    12.1810 Si            1 RES     
    2215 O           35.5170    99.9290     1.5800 O             1 RES     
    2216 O            3.1960    63.4610     3.7560 O             1 RES     
    2217 O            4.0060    80.3250     6.5690 O             1 RES     
    2218 O           39.3020    50.3220     2.5230 O             1 RES     
    2219 Si          39.5480    84.3190     5.9030 Si            1 RES     
    2220 Si          19.5940    68.6870     4.7920 Si            1 RES     
    2221 OS          15.5400    61.8900    12.5810 OS            1 RES     
    2222 Si           3.2760    72.0430     6.8940 Si            1 RES     
    2223 Si          16.4430    53.1290    10.4140 Si            1 RES     
    2224 O           34.7450    70.4650     6.8190 O             1 RES     
    2225 O           42.7410    99.4860     7.9210 O             1 RES     
    2226 O            9.6600    75.8890     8.2980 O             1 RES     
    2227 Si          14.1900    90.4600     5.9330 Si            1 RES     
    2228 O            2.1890    57.9920     5.7940 O             1 RES     
    2229 O            9.6740    53.0890     7.3500 O             1 RES     
    2230 Si          45.4850    52.3080     9.1260 Si            1 RES     
    2231 O           34.5530    51.7420     7.1130 O             1 RES     
    2232 Si          47.6950    96.8240     4.1620 Si            1 RES     
    2233 O            9.0940    81.8780     9.0570 O             1 RES     
    2234 O           32.8540    61.6640    10.2560 O             1 RES     
    2235 O           39.9370    62.6720     5.1830 O             1 RES     
    2236 O           42.7870    57.5880     3.9020 O             1 RES     
    2237 OS          41.5110    94.6970    13.8950 OS            1 RES     
    2238 Si           3.5110    76.4870     7.6910 Si            1 RES     
    2239 O           24.8100    90.6180     2.1530 O             1 RES     
    2240 O           28.0830    69.4000    14.1250 O             1 RES     
    2241 Si          45.3360    98.4560     5.2530 Si            1 RES     
    2242 O           15.0890    66.2570    10.7830 O             1 RES     
    2243 O            1.7470    75.2300     4.6450 O             1 RES     
    2244 O           20.2430    99.6870    11.9420 O             1 RES     
    2245 Si           1.9550    92.6290     6.7790 Si            1 RES     
    2246 Si          21.5380    53.5220     7.4470 Si            1 RES     
    2247 O           17.2980    95.0130    10.2930 O             1 RES     
    2248 O           14.1450    89.2150     6.8920 O             1 RES     
    2249 O           10.4990    69.3050     7.6740 O             1 RES     
    2250 Si          14.9070    57.2060     6.9330 Si            1 RES     
    2251 Si          28.6810    75.7310     9.3460 Si            1 RES     
    2252 O           35.3300    80.3750     2.9760 O             1 RES     
    2253 Si           8.6830    93.2050     7.6990 Si            1 RES     
    2254 O           14.0870    79.7210     3.3030 O             1 RES     
    2255 O           33.0820    72.8120    10.2330 O             1 RES     
    2256 O           47.5190    86.2220     3.8790 O             1 RES     
    2257 Si          28.5250    56.5820    10.1990 Si            1 RES     
    2258 OS          10.7470    86.0950    11.4710 OS            1 RES     
    2259 Si          47.4500    67.4220     4.3660 Si            1 RES     
    2260 O           28.1610    65.8470     6.3670 O             1 RES     
    2261 OS           1.1650    72.8170    14.2730 OS            1 RES     
    2262 O           44.8110    50.9100     8.5730 O             1 RES     
    2263 O           18.5750    77.3960     6.6910 O             1 RES     
    2264 O           26.1090    53.3020     3.9990 O             1 RES     
    2265 Si          42.6060    84.7230     9.4340 Si            1 RES     
    2266 Si          45.3720    60.9610     7.0310 Si            1 RES     
    2267 O           22.5860    79.5690     3.9380 O             1 RES     
    2268 Si          40.2970    81.3540     6.4800 Si            1 RES     
    2269 Si           6.0960    83.9830    10.8440 Si            1 RES     
    2270 O           12.7440    80.9830     8.8940 O             1 RES     
    2271 OS          46.1210    51.2430    12.8700 OS            1 RES     
    2272 O           26.2930    80.5420     3.2220 O             1 RES     
    2273 O            7.8820    74.5560     9.3200 O             1 RES     
    2274 O           27.0360    72.2950     8.3600 O             1 RES     
    2275 O           25.2950    50.7040    10.3780 O             1 RES     
    2276 Si          24.9280    67.5040     7.8380 Si            1 RES     
    2277 O           48.6180    54.1440    10.7340 O             1 RES     
    2278 O           25.6520    78.5460     7.8160 O             1 RES     
    2279 O           19.8470    74.9840     6.4890 O             1 RES     
    2280 Si          41.6370    62.8030    10.9200 Si            1 RES     
    2281 Si          35.3520    51.3890    12.1150 Si            1 RES     
    2282 Si          46.8970    87.7350     7.7620 Si            1 RES     
    2283 O            5.3780    85.8640     6.8210 O             1 RES     
    2284 O           45.1740    77.8150     2.8680 O             1 RES     
    2285 Si          43.8770    77.3760    11.5510 Si            1 RES     
    2286 Si          12.5270    58.5340     8.2720 Si            1 RES     
    2287 O            3.5620    78.0480     7.7900 O             1 RES     
    2288 O            5.2150    72.8920     2.7460 O             1 RES     
    2289 O           46.5290    72.0670     9.2400 O             1 RES     
    2290 Si          13.1480    65.3560     5.0550 Si            1 RES     
    2291 O           24.9450    79.7810    11.9010 O             1 RES     
    2292 O            0.0590    67.7840     9.3110 O             1 RES     
    2293 O           19.1170    63.8090     9.2550 O             1 RES     
    2294 O            4.0670    87.3420     4.9070 O             1 RES     
    2295 O           36.9140    60.2500     9.4460 O             1 RES     
    2296 O           35.5640    56.3480     5.5660 O             1 RES     
    2297 OS          29.1860    88.1350    12.6570 OS            1 RES     
    2298 Si          31.8730    87.3300     3.6020 Si            1 RES     
    2299 O           42.7740    53.8650     8.6890 O             1 RES     
    2300 O           49.9610    83.5230     2.2830 O             1 RES     
    2301 O           36.2550    76.7060     8.7730 O             1 RES     
    2302 Si          14.0130    65.1700    11.1740 Si            1 RES     
    2303 OS           3.7870    66.7630    12.8830 OS            1 RES     
    2304 Si          48.5450    55.0490    12.0960 Si            1 RES     
    2305 O           40.6880    72.2130     4.0540 O             1 RES     
    2306 O           14.5790    82.1970     7.4600 O             1 RES     
    2307 O           40.8770    88.5600     8.8240 O             1 RES     
    2308 O           24.8340    93.0310     2.6420 O             1 RES     
    2309 Si          30.0510    69.2360     5.0320 Si            1 RES     
    2310 O           32.2550    58.4950     2.8570 O             1 RES     
    2311 Si           6.2410    93.4290     9.5200 Si            1 RES     
    2312 Si          26.1320    77.2990     4.2450 Si            1 RES     
    2313 O           39.7030    93.2250     8.3650 O             1 RES     
    2314 O            8.5980    96.3720     2.2240 O             1 RES     
    2315 Si          34.6490    53.1510     7.7220 Si            1 RES     
    2316 O           15.1550    61.3100     5.9300 O             1 RES     
    2317 Si           5.3720    60.0700     4.4590 Si            1 RES     
    2318 O           42.3490    57.4910    12.1660 O             1 RES     
    2319 O            5.0060    54.4480     4.0530 O             1 RES     
    2320 O           19.4280    95.2850     5.8050 O             1 RES     
    2321 O           44.4440    96.5930    10.0370 O             1 RES     
    2322 O           49.3310    82.3570     9.5320 O             1 RES     
    2323 O           30.1120    76.0840     8.9200 O             1 RES     
    2324 O           10.4160    51.0990     2.8170 O             1 RES     
    2325 O            5.6430    84.8800     9.6260 O             1 RES     
    2326 O           10.6130    79.6900     9.5080 O             1 RES     
    2327 O           38.9430    80.5190     6.3560 O             1 RES     
    2328 O           10.5100    58.1880     5.4640 O             1 RES     
    2329 O           18.0080    99.7870    12.4920 O             1 RES     
    2330 O           29.9750    68.5390     6.4630 O             1 RES     
    2331 Si          43.5010    56.3350    12.2980 Si            1 RES     
    2332 O           31.0460    83.8030     5.5130 O             1 RES     
    2333 O            8.9270    61.8520    11.1040 O             1 RES     
    2334 O           22.6540    50.6510     6.3860 O             1 RES     
    2335 O           45.1230    82.2190     9.7350 O             1 RES     
    2336 O           15.4250    58.6330     6.4840 O             1 RES     
    2337 O           24.3040    83.2740     3.2250 O             1 RES     
    2338 O           49.8890    63.0660     8.7600 O             1 RES     
    2339 Si           8.1590    61.0630     5.8820 Si            1 RES     
    2340 Si           9.7230    56.6800    12.0750 Si            1 RES     
    2341 Si          28.4790    58.4120     7.7260 Si            1 RES     
    2342 Si           0.5120    57.5370    12.0020 Si            1 RES     
    2343 O            9.6710    55.6550     4.5980 O             1 RES     
    2344 O            0.6430    96.6160     2.2410 O             1 RES     
    2345 O           47.4550    63.8010     8.3070 O             1 RES     
    2346 O           18.8750    75.6890    11.5620 O             1 RES     
    2347 Si           9.6420    79.2860     3.6580 Si            1 RES     
    2348 O            6.7420    77.7270     7.4510 O             1 RES     
    2349 Si           7.3690    61.2960    10.8940 Si            1 RES     
    2350 Si          30.6730    82.5360     9.5370 Si            1 RES     
    2351 O           12.3410    83.3180     7.6750 O             1 RES     
    2352 Si           5.5320    86.0130     8.4250 Si            1 RES     
    2353 Si          23.0290    93.0570    11.1760 Si            1 RES     
    2354 Si          40.9590    58.1710     7.5530 Si            1 RES     
    2355 OS          19.6480    98.2890    13.7740 OS            1 RES     
    2356 O           34.4150    72.6970     5.0520 O             1 RES     
    2357 O           21.5930    53.0260     9.0560 O             1 RES     
    2358 Si          35.2580    64.0110    11.5060 Si            1 RES     
    2359 O           15.8700    82.0780     9.6110 O             1 RES     
    2360 O           27.1660    68.1990     2.9840 O             1 RES     
    2361 O            2.9420    79.6550     4.5650 O             1 RES     
    2362 Si          41.6730    93.7280     5.2710 Si            1 RES     
    2363 O           39.1920    50.5770     7.9150 O             1 RES     
    2364 O           12.7510    69.8360     9.1320 O             1 RES     
    2365 O           21.9460    92.2760    10.3200 O             1 RES     
    2366 O           14.1980    88.2730     2.9000 O             1 RES     
    2367 O           29.3360    82.1020     8.8840 O             1 RES     
    2368 O           49.7930    60.4860     8.6050 O             1 RES     
    2369 O           26.2920    62.6820     9.6340 O             1 RES     
    2370 O            9.8200    75.0990    10.5220 O             1 RES     
    2371 Si          27.4390    69.6000     3.5680 Si            1 RES     
    2372 O            6.6230    64.8530     6.6910 O             1 RES     
    2373 O            8.6230    99.0540    10.4420 O             1 RES     
    2374 O           44.8180    76.8060    10.4470 O             1 RES     
    2375 O           11.7380    59.5000     1.6330 O             1 RES     
    2376 O           47.2400    96.8150     2.7000 O             1 RES     
    2377 O           34.5170    74.8560     9.2050 O             1 RES     
    2378 O           20.2360    59.1000    10.6340 O             1 RES     
    2379 Si          25.7150    91.7100     2.8710 Si            1 RES     
    2380 O           34.9960    69.4610     9.2060 O             1 RES     
    2381 Si          41.4990    69.5180    11.1150 Si            1 RES     
    2382 Si          15.2730    60.2900    12.5260 Si            1 RES     
    2383 O           36.2120    68.2560     7.4380 O             1 RES     
    2384 O           29.3970    86.5730     9.2700 O             1 RES     
    2385 O            5.0300    73.2810    10.2570 O             1 RES     
    2386 Si           0.3920    92.2210     4.1890 Si            1 RES     
    2387 O            2.2260    76.4020     2.4270 O             1 RES     
    2388 O           49.4230    68.8260    12.6940 O             1 RES     
    2389 O           27.1160    77.9850     5.1480 O             1 RES     
    2390 Si           8.2650    90.9430     4.4180 Si            1 RES     
    2391 O           41.1300    72.0980     6.6650 O             1 RES     
    2392 O           45.5570    81.9600     4.3400 O             1 RES     
    2393 O            0.1660    69.6860     6.1490 O             1 RES     
    2394 Si          33.2720    58.2920    11.3850 Si            1 RES     
    2395 O           22.7000    50.6170     4.0170 O             1 RES     
    2396 O           13.0960    97.7250     5.9260 O             1 RES     
    2397 Si          22.7790    51.7000     2.8520 Si            1 RES     
    2398 O           16.3630    63.3470     5.6630 O             1 RES     
    2399 O           30.9870    98.2450    10.0420 O             1 RES     
    2400 O           37.2390    99.7590     3.5030 O             1 RES     
    2401 Si          30.8900    66.7310     3.3720 Si            1 RES     
    2402 O           26.4990    94.3450     9.2110 O             1 RES     
    2403 O           49.2220    76.2600     7.9750 O             1 RES     
    2404 O            3.4010    89.1840    11.4160 O             1 RES     
    2405 O           33.9070    81.6450     7.3760 O             1 RES     
    2406 O           43.4510    65.8270    10.1300 O             1 RES     
    2407 Si          46.0430    75.0580     5.6030 Si            1 RES     
    2408 O            1.8810    76.1950     7.7000 O             1 RES     
    2409 O           17.3560    52.2180    11.3970 O             1 RES     
    2410 O            7.1550    67.3080     4.0380 O             1 RES     
    2411 Si          42.4350    60.2010     5.9260 Si            1 RES     
    2412 Si          40.6900    53.0210    11.3890 Si            1 RES     
    2413 O           19.9280    79.8800    10.9250 O             1 RES     
    2414 O           19.4570    70.9430     7.8900 O             1 RES     
    2415 O           10.7040    63.2600     9.7220 O             1 RES     
    2416 Si           0.4770    51.6020     5.9420 Si            1 RES     
    2417 O            9.4100    51.3120    10.7100 O             1 RES     
    2418 Si          18.7360    67.6360     9.5480 Si            1 RES     
    2419 O            5.7520    97.8330    12.9800 O             1 RES     
    2420 O           19.8340    57.1440     8.9810 O             1 RES     
    2421 Si          18.1230    58.5540     3.6600 Si            1 RES     
    2422 Si           8.9940    83.1040    10.0430 Si            1 RES     
    2423 O           35.6350    87.2760     4.9160 O             1 RES     
    2424 O           43.9320    80.7370     6.0400 O             1 RES     
    2425 Si          10.3410    86.8300     3.1460 Si            1 RES     
    2426 O           30.0060    84.1070    13.8750 O             1 RES     
    2427 OS          33.7480    83.1240    13.3250 OS            1 RES     
    2428 Si           7.3310    93.7630     4.9050 Si            1 RES     
    2429 O           12.4480    73.4040     3.5910 O             1 RES     
    2430 Si          11.1820    70.0760     8.8680 Si            1 RES     
    2431 Si          26.8970    82.7770    12.0530 Si            1 RES     
    2432 O           31.1770    88.7570     3.8720 O             1 RES     
    2433 O           42.7610    86.9040     6.8720 O             1 RES     
    2434 O            0.1790    95.8030    11.0080 O             1 RES     
    2435 O           14.9690    89.8680     4.7060 O             1 RES     
    2436 O            9.7750    80.5060     2.5650 O             1 RES     
    2437 Si          26.2080    85.7160    11.4330 Si            1 RES     
    2438 O           33.8200    51.8110    12.2470 O             1 RES     
    2439 O           32.2410    74.6310     8.4590 O             1 RES     
    2440 O           44.9250    56.9980    12.2900 O             1 RES     
    2441 Si          10.0470    56.9750     9.0140 Si            1 RES     
    2442 O            4.9290    63.9990     8.3470 O             1 RES     
    2443 Si          23.0970    84.0080     6.9800 Si            1 RES     
    2444 O           35.3680    99.2480     6.6070 O             1 RES     
    2445 O           38.6330    53.1870     8.2330 O             1 RES     
    2446 O            9.6790    88.1050     2.4130 O             1 RES     
    2447 O           24.3640    75.9410     9.8980 O             1 RES     
    2448 Si           1.3860    54.4330     6.3760 Si            1 RES     
    2449 O           36.0720    75.4030    10.9870 O             1 RES     
    2450 Si          33.3970    50.4560     4.1020 Si            1 RES     
    2451 O           47.7770    95.4010     4.5940 O             1 RES     
    2452 O           49.6460    50.9140     7.0600 O             1 RES     
    2453 Si          49.7490    92.7510     8.8430 Si            1 RES     
    2454 O           47.7090    70.8010    12.2820 O             1 RES     
    2455 O           21.0710    55.0660     7.7670 O             1 RES     
    2456 Si          17.6200    58.2770    12.5210 Si            1 RES     
    2457 O           23.8990    58.0890     8.4830 O             1 RES     
    2458 O           44.9940    56.8110     5.0230 O             1 RES     
    2459 O           38.3840    77.7090     9.6910 O             1 RES     
    2460 Si           2.3000    99.5910     9.1770 Si            1 RES     
    2461 O           11.0760    67.9080    12.0650 O             1 RES     
    2462 Si           2.4870    95.5200     5.7490 Si            1 RES     
    2463 O            5.1070    63.1130     2.0220 O             1 RES     
    2464 O           17.3130    67.3870    10.0950 O             1 RES     
    2465 O           38.8030    68.8680     3.1010 O             1 RES     
    2466 O            6.2230    55.3790     1.6200 O             1 RES     
    2467 O           33.8930    87.3990    11.2720 O             1 RES     
    2468 OS          35.5880    87.9490    13.8270 OS            1 RES     
    2469 O            5.7350    72.1460    12.4840 O             1 RES     
    2470 Si          30.0550    70.4620     9.8690 Si            1 RES     
    2471 O            6.6910    71.9270     4.9560 O             1 RES     
    2472 O           17.7340    71.6430     3.5230 O             1 RES     
    2473 O           19.7000    95.8050    10.1940 O             1 RES     
    2474 O           21.0350    60.2870     8.9720 O             1 RES     
    2475 Si           0.3040    61.6260     9.5100 Si            1 RES     
    2476 Si          47.8920    89.8850     5.9730 Si            1 RES     
    2477 Si          25.8660    94.0270    10.5700 Si            1 RES     
    2478 O            3.1940    50.0020     7.9500 O             1 RES     
    2479 O           33.6470    84.4260     4.8550 O             1 RES     
    2480 Si          30.7270    92.4020     8.4770 Si            1 RES     
    2481 Si          34.7700    87.8690     3.8180 Si            1 RES     
    2482 O           29.2810    70.1280    11.1720 O             1 RES     
    2483 O           18.3850    85.8390     4.7270 O             1 RES     
    2484 Si          45.2900    75.8680     9.3100 Si            1 RES     
    2485 Si          42.5050    72.3130    10.4510 Si            1 RES     
    2486 Si          15.7320    79.5360     3.7050 Si            1 RES     
    2487 Si           9.6690    97.8430     5.4930 Si            1 RES     
    2488 O           12.3740    98.9220     8.1810 O             1 RES     
    2489 O           24.6360    50.9360     7.9300 O             1 RES     
    2490 O           19.8080    53.0050     3.2320 O             1 RES     
    2491 O           35.4430    50.0010    12.9260 O             1 RES     
    2492 O            6.8130    77.9240     9.9120 O             1 RES     
    2493 O           36.6000    88.8690     6.7020 O             1 RES     
    2494 Si          10.1060    69.0830    11.7060 Si            1 RES     
    2495 O           19.5560    65.3870     7.1320 O             1 RES     
    2496 O           13.4780    97.4240     3.3610 O             1 RES     
    2497 OS          33.1620    61.7520    13.1050 OS            1 RES     
    2498 O           10.6930    76.6800     1.2410 O             1 RES     
    2499 O           22.8730    72.8310    11.1670 O             1 RES     
    2500 O           11.8470    71.1590     4.2940 O             1 RES     
    2501 Si          21.9760    62.3940    12.3550 Si            1 RES     
    2502 O           12.8560    59.6200     9.3420 O             1 RES     
    2503 Si          15.5080    88.7700     3.6850 Si            1 RES     
    2504 O           37.2780    92.6790     9.7680 O             1 RES     
    2505 O            8.5470    60.3990     4.4330 O             1 RES     
    2506 O            4.3780    96.6300     8.9120 O             1 RES     
    2507 O           29.9050    95.6210     6.1860 O             1 RES     
    2508 Si          33.6080    64.0500     6.7690 Si            1 RES     
    2509 O            6.9040    64.7780     2.4800 O             1 RES     
    2510 O           17.7290    96.9900     5.8550 O             1 RES     
    2511 O           13.0630    52.0570     5.8520 O             1 RES     
    2512 O           14.9550    70.6690     8.2220 O             1 RES     
    2513 O           26.1070    91.4050     4.3750 O             1 RES     
    2514 O           26.7350    76.8440     2.9100 O             1 RES     
    2515 O           30.0560    52.9350     5.7890 O             1 RES     
    2516 O           45.2980    71.2120     4.8160 O             1 RES     
    2517 O            9.9770    60.8910     9.1250 O             1 RES     
    2518 Si          15.7720    82.3240    11.1840 Si            1 RES     
    2519 O           25.9570    82.4380     4.9530 O             1 RES     
    2520 O           49.6260    88.0500     4.0950 O             1 RES     
    2521 Si          27.7560    72.5190     3.0090 Si            1 RES     
    2522 O            6.1310    68.0340    12.6980 O             1 RES     
    2523 Si          29.6580    62.5070     4.9570 Si            1 RES     
    2524 Si          20.6900    53.4160     4.4270 Si            1 RES     
    2525 O           18.0140    87.6140     6.4480 O             1 RES     
    2526 Si           7.4400    99.6480     6.7860 Si            1 RES     
    2527 O           11.4600    92.1930     3.2080 O             1 RES     
    2528 O            7.4840    92.2850     4.2520 O             1 RES     
    2529 O           20.4090    91.3470     8.5420 O             1 RES     
    2530 O           27.7690    65.8050     3.7780 O             1 RES     
    2531 O           20.8050    72.5490     6.6200 O             1 RES     
    2532 O           47.1940    59.1690     3.9050 O             1 RES     
    2533 OS          43.1990    82.2580    11.8910 OS            1 RES     
    2534 OS           2.5250    51.7930    12.7490 OS            1 RES     
    2535 O           15.8720    81.1240     3.5680 O             1 RES     
    2536 O           24.6860    55.7720     8.6550 O             1 RES     
    2537 Si           3.3320    67.0320     2.8190 Si            1 RES     
    2538 O           46.1960    69.5610     9.2260 O             1 RES     
    2539 O            4.2990    61.6510     9.3740 O             1 RES     
    2540 Si          43.9040    70.4480     4.8120 Si            1 RES     
    2541 O           24.8680    85.8760    12.2940 O             1 RES     
    2542 O           23.6580    68.9010     3.6840 O             1 RES     
    2543 Si          14.1220    87.2970    12.4430 Si            1 RES     
    2544 Si          48.3240    53.2150     9.4960 Si            1 RES     
    2545 O            8.7600    95.0380    12.2370 O             1 RES     
    2546 Si          35.3480    84.2110     9.5120 Si            1 RES     
    2547 Si          47.0210    50.0510    12.4420 Si            1 RES     
    2548 O           19.9310    83.8980     5.2210 O             1 RES     
    2549 O            7.6010    84.5360     2.5650 O             1 RES     
    2550 O           15.1770    94.2300     2.7320 O             1 RES     
    2551 O           41.9330    87.9030     4.7360 O             1 RES     
    2552 Si           6.2890    67.4690     9.5750 Si            1 RES     
    2553 O           25.4360    61.1810    11.7760 O             1 RES     
    2554 O           10.2860    51.4390     5.2360 O             1 RES     
    2555 O           23.4720    93.8750     7.4750 O             1 RES     
    2556 O            6.0160    94.9060     9.1190 O             1 RES     
    2557 Si          12.5860    59.9290     3.0050 Si            1 RES     
    2558 O            2.3750    65.4810     5.2860 O             1 RES     
    2559 Si           5.0570    63.0090     9.6470 Si            1 RES     
    2560 O           18.5420    55.3050     7.9260 O             1 RES     
    2561 O           48.6410    93.7890     8.4790 O             1 RES     
    2562 O           11.8310    80.9040    11.1600 O             1 RES     
    2563 O           35.0670    63.4710     6.3520 O             1 RES     
    2564 Si          42.0050    88.9920     3.5840 Si            1 RES     
    2565 O            8.0640    90.0100     3.0870 O             1 RES     
    2566 Si          28.7100    87.9400     8.8920 Si            1 RES     
    2567 Si           1.4570    57.3840     7.0950 Si            1 RES     
    2568 O           19.5950    81.6930     6.4870 O             1 RES     
    2569 Si          20.2910    60.6330    10.3250 Si            1 RES     
    2570 O           49.4830    59.5720     4.3120 O             1 RES     
    2571 Si          49.2360    80.9390    10.2300 Si            1 RES     
    2572 O           29.8460    91.2250     8.0550 O             1 RES     
    2573 Si          19.0220    75.9820     7.4110 Si            1 RES     
    2574 O           23.4690    63.3370     9.5400 O             1 RES     
    2575 Si          23.9240    74.9980     8.7160 Si            1 RES     
    2576 OS          33.2710    87.9530    13.2690 OS            1 RES     
    2577 O           22.4530    71.1830    13.0020 O             1 RES     
    2578 O           25.8540    75.8150     5.0220 O             1 RES     
    2579 O           40.4720    81.4740     8.0220 O             1 RES     
    2580 Si          49.0790    59.2880     7.9830 Si            1 RES     
    2581 OS           6.2560    56.2770    13.5190 OS            1 RES     
    2582 Si          34.2060    90.7980     4.4520 Si            1 RES     
    2583 O           38.6100    87.7160     3.1690 O             1 RES     
    2584 Si           7.0770    70.2490     8.8390 Si            1 RES     
    2585 Si          48.9090    96.5840    11.4290 Si            1 RES     
    2586 O           38.3370    76.5730     2.7100 O             1 RES     
    2587 Si          34.5520    59.9310     7.0270 Si            1 RES     
    2588 Si          20.0360    81.2220    10.1190 Si            1 RES     
    2589 O            2.8930    72.2920     2.5400 O             1 RES     
    2590 Si          27.6670    66.0710     7.8400 Si            1 RES     
    2591 O           28.8060    63.8260     5.0430 O             1 RES     
    2592 Si          24.8180    62.7050    10.9700 Si            1 RES     
    2593 Si          48.9160    83.1910     8.2340 Si            1 RES     
    2594 Si          19.3220    88.0950    12.5930 Si            1 RES     
    2595 Si           1.9380    85.8990    11.6940 Si            1 RES     
    2596 O           45.7460    87.2740    11.2740 O             1 RES     
    2597 O           41.7790    80.2140    12.0810 O             1 RES     
    2598 OS           9.6630    80.5690    12.2770 OS            1 RES     
    2599 Si          19.9030    64.9890     8.5670 Si            1 RES     
    2600 O           25.7710    54.4830     6.4720 O             1 RES     
    2601 O           48.9850    82.2290     4.6010 O             1 RES     
    2602 Si          37.7750    89.8480     6.4840 Si            1 RES     
    2603 O            8.1810    51.0180     6.6000 O             1 RES     
    2604 Si          29.5330    83.3360     5.4390 Si            1 RES     
    2605 O           46.2350    73.4670     5.7550 O             1 RES     
    2606 Si          17.2150    78.3100     6.4770 Si            1 RES     
    2607 O           23.2530    57.7300     5.9480 O             1 RES     
    2608 O           20.2230    91.7250     6.0320 O             1 RES     
    2609 Si          14.1060    52.9270    12.3560 Si            1 RES     
    2610 O           19.4250    76.0820     8.9530 O             1 RES     
    2611 Si           7.2080    98.9900     9.7760 Si            1 RES     
    2612 OS          13.0180    87.7460    13.3970 OS            1 RES     
    2613 Si          49.0280    66.6680     9.7360 Si            1 RES     
    2614 O           38.7140    89.7180     7.7470 O             1 RES     
    2615 Si          30.7840    96.8420     5.9520 Si            1 RES     
    2616 O           10.4830    79.8580     4.8470 O             1 RES     
    2617 O           43.3200    91.9460     1.6670 O             1 RES     
    2618 Si          18.2410    62.9120    10.1490 Si            1 RES     
    2619 O           10.7840    93.1810    10.3760 O             1 RES     
    2620 O           42.2450    92.8690     9.2390 O             1 RES     
    2621 Si          28.5000    72.7930     8.3570 Si            1 RES     
    2622 O            4.2370    71.0310    10.8790 O             1 RES     
    2623 O           31.8450    58.4730    11.9550 O             1 RES     
    2624 O           44.0220    72.2570     9.9290 O             1 RES     
    2625 Si          39.1410    99.3650     6.8780 Si            1 RES     
    2626 OS          10.8590    65.6080    13.4570 OS            1 RES     
    2627 Si           5.3790    50.2450     4.5480 Si            1 RES     
    2628 O            8.0870    60.3600     7.2540 O             1 RES     
    2629 O           29.9120    93.3700     9.5960 O             1 RES     
    2630 Si          43.3470    67.3420     9.7490 Si            1 RES     
    2631 O           21.2180    88.5560     4.1250 O             1 RES     
    2632 Si          46.2780    68.2610    10.0530 Si            1 RES     
    2633 O           19.3690    89.5920     7.2420 O             1 RES     
    2634 O           47.3990    63.5140     4.6950 O             1 RES     
    2635 Si          29.8150    83.5000    12.2720 Si            1 RES     
    2636 O           29.7090    54.6080     3.9520 O             1 RES     
    2637 O           24.4790    56.5760     3.9720 O             1 RES     
    2638 Si          45.4830    50.4720     2.9760 Si            1 RES     
    2639 O           42.9600    71.7040     4.9030 O             1 RES     
    2640 O           11.2310    69.0010     2.7990 O             1 RES     
    2641 Si          30.8700    58.1510     3.5780 Si            1 RES     
    2642 Si          10.7240    94.5390     9.5680 Si            1 RES     
    2643 O           44.5910    53.2770    10.0920 O             1 RES     
    2644 OS          40.6880    62.9890    12.1640 OS            1 RES     
    2645 O           23.7620    84.0750     5.5450 O             1 RES     
    2646 O           28.5770    69.4320     4.6810 O             1 RES     
    2647 Si          48.8450    82.4750     3.0400 Si            1 RES     
    2648 O            2.2640    78.7650    11.3580 O             1 RES     
    2649 O            8.7090    68.4050    12.0580 O             1 RES     
    2650 Si          36.6600    79.8290     3.7120 Si            1 RES     
    2651 O           24.6190    71.3980     7.7070 O             1 RES     
    2652 Si          39.7760    77.3710    10.4760 Si            1 RES     
    2653 OS          48.4250    80.9370    11.5870 OS            1 RES     
    2654 O           36.1050    53.2680     8.2910 O             1 RES     
    2655 O           12.4430    51.3040     8.2790 O             1 RES     
    2656 Si          33.4360    66.4340    10.8380 Si            1 RES     
    2657 Si          30.7530    54.1730     5.0870 Si            1 RES     
    2658 O            6.1070    88.0600     5.8620 O             1 RES     
    2659 O           38.6680    86.4770     8.9480 O             1 RES     
    2660 Si          11.1630    59.6020     5.7720 Si            1 RES     
    2661 Si          40.3730    64.4940     8.7190 Si            1 RES     
    2662 O           49.6810    82.3530     7.0340 O             1 RES     
    2663 OS          14.2170    72.5440    13.1760 OS            1 RES     
    2664 O           33.6960    65.5260     7.1440 O             1 RES     
    2665 O           34.6540    99.6130     3.8450 O             1 RES     
    2666 O            0.6790    80.3410     5.3820 O             1 RES     
    2667 Si          19.0850    98.6460    12.2470 Si            1 RES     
    2668 Si          22.1510    52.9900    10.5480 Si            1 RES     
    2669 O           34.7300    86.8210     2.4400 O             1 RES     
    2670 O            2.4910    68.3390     2.9200 O             1 RES     
    2671 Si          46.3210    91.5570     3.9180 Si            1 RES     
    2672 O           35.5150    62.7300     1.6720 O             1 RES     
    2673 O           20.6750    85.7400     9.5880 O             1 RES     
    2674 O           44.1660    76.3470     8.2340 O             1 RES     
    2675 Si           0.5010    75.4290     7.9210 Si            1 RES     
    2676 O           25.2210    89.4880     5.9300 O             1 RES     
    2677 OS          46.3090    85.2350    12.6710 OS            1 RES     
    2678 O           19.1550    57.3510     3.9290 O             1 RES     
    2679 O           24.3180    75.4750     7.2570 O             1 RES     
    2680 O           44.5330    92.4470    10.6150 O             1 RES     
    2681 O           32.8890    87.2560     8.9580 O             1 RES     
    2682 Si          10.0770    68.5520     6.3800 Si            1 RES     
    2683 Si          15.4110    62.2030     8.9330 Si            1 RES     
    2684 Si          23.5250    72.0570    12.3530 Si            1 RES     
    2685 O           32.6580    79.0700    10.7970 O             1 RES     
    2686 O           18.9780    61.5120    10.0640 O             1 RES     
    2687 OS          25.6930    69.3670    13.4870 OS            1 RES     
    2688 O           42.1530    59.8200     4.4030 O             1 RES     
    2689 OS          31.5440    67.1520    13.7880 OS            1 RES     
    2690 O           18.3820    57.7760    11.1990 O             1 RES     
    2691 Si          19.9120    75.9010    10.4390 Si            1 RES     
    2692 Si          21.2670    89.6860     3.0300 Si            1 RES     
    2693 O           10.3610    94.5950     2.8460 O             1 RES     
    2694 O           19.7400    95.9700     3.4200 O             1 RES     
    2695 Si          18.8430    60.6020     5.8770 Si            1 RES     
    2696 O           11.3070    74.0840     8.6510 O             1 RES     
    2697 O           21.1670    51.4560    13.9310 O             1 RES     
    2698 O            8.0970    79.2030     4.1690 O             1 RES     
    2699 O           33.8360    60.8010     2.9710 O             1 RES     
    2700 O            1.1100    70.6060     3.1090 O             1 RES     
    2701 Si          46.7980    70.7630     8.3390 Si            1 RES     
    2702 O           12.9400    88.4750     8.8170 O             1 RES     
    2703 Si          29.6600    94.8580    10.0510 Si            1 RES     
    2704 O           11.2120    65.4640     8.3510 O             1 RES     
    2705 Si          39.6190    52.0610     8.6460 Si            1 RES     
    2706 OS          19.3910    89.6610    12.7410 OS            1 RES     
    2707 O           47.5620    57.4470     5.5700 O             1 RES     
    2708 Si          39.2700    86.7440    10.3940 Si            1 RES     
    2709 O           43.0340    68.0030     8.3440 O             1 RES     
    2710 Si          31.7660    56.8110     9.2550 Si            1 RES     
    2711 O            2.4310    70.7180     6.6690 O             1 RES     
    2712 Si          41.7730    94.6900    12.3280 Si            1 RES     
    2713 O           28.3720    83.8490     7.0030 O             1 RES     
    2714 OS          12.9090    77.3060    12.5350 OS            1 RES     
    2715 Si           4.1990    55.0560    10.8450 Si            1 RES     
    2716 O           39.9540    55.4880     5.1340 O             1 RES     
    2717 Si           2.1290    64.5270     4.0690 Si            1 RES     
    2718 Si          23.8080    58.7590     7.0580 Si            1 RES     
    2719 O           15.0930    50.7780     4.4410 O             1 RES     
    2720 O           34.8950    54.1750     6.5650 O             1 RES     
    2721 OS          34.3920    79.4680    12.5620 OS            1 RES     
    2722 O            3.3300    72.7720     8.3380 O             1 RES     
    2723 O           18.1330    59.5050     2.4330 O             1 RES     
    2724 O           12.2920    94.5360     9.1110 O             1 RES     
    2725 O            6.9350    70.8710     7.3810 O             1 RES     
    2726 Si           8.2440    87.4110     8.3920 Si            1 RES     
    2727 OS          25.8330    65.4440    13.8280 OS            1 RES     
    2728 Si          13.5490    84.3190    11.9030 Si            1 RES     
    2729 Si          19.7110    57.5830    10.4450 Si            1 RES     
    2730 Si          28.6080    65.3720     4.9640 Si            1 RES     
    2731 O           39.9930    54.1720     3.0720 O             1 RES     
    2732 Si          25.0340    82.0940     8.5620 Si            1 RES     
    2733 O           43.6290    83.2150     5.0040 O             1 RES     
    2734 Si          11.3430    91.5240     4.6710 Si            1 RES     
    2735 Si          27.0130    63.1390     8.3330 Si            1 RES     
    2736 Si          48.9600    63.6160     4.9470 Si            1 RES     
    2737 O           26.9220    79.1920     9.9540 O             1 RES     
    2738 Si           6.3490    76.5680     6.4490 Si            1 RES     
    2739 O           26.2180    53.1580    10.9840 O             1 RES     
    2740 O           33.2120    66.3800     9.3320 O             1 RES     
    2741 OS           6.4260    84.7250    12.1420 OS            1 RES     
    2742 O           19.1830    98.4110     2.8480 O             1 RES     
    2743 Si           2.8540    96.5740     8.6460 Si            1 RES     
    2744 O           40.5630    85.5950     5.7950 O             1 RES     
    2745 O           33.2630    60.6490     7.6910 O             1 RES     
    2746 O           44.8170    99.4930     6.4370 O             1 RES     
    2747 O           15.8050    50.2400    11.7960 O             1 RES     
    2748 Si          29.1690    90.2680     6.9740 Si            1 RES     
    2749 O           24.2300    82.0940     9.9360 O             1 RES     
    2750 OS          36.0060    64.0500    12.9430 OS            1 RES     
    2751 Si           4.1400    81.8930    12.2360 Si            1 RES     
    2752 O           13.9600    85.7890    11.8600 O             1 RES     
    2753 O           10.1560    67.0980     6.7790 O             1 RES     
    2754 O           31.4100    88.4720    11.0010 O             1 RES     
    2755 O           16.3110    59.1870    12.1930 O             1 RES     
    2756 O           49.7160    56.1130    11.9960 O             1 RES     
    2757 Si          46.2190    56.7850     6.0930 Si            1 RES     
    2758 O           49.4500    58.6740    12.1600 O             1 RES     
    2759 O            0.5590    74.8310     9.4250 O             1 RES     
    2760 O           31.0190    62.8100     4.2520 O             1 RES     
    2761 O           42.5120    63.8110     3.3200 O             1 RES     
    2762 O           44.9820    85.0040     3.9540 O             1 RES     
    2763 Si          47.8900    90.3320     9.3920 Si            1 RES     
    2764 OS          40.7650    69.2600    12.4870 OS            1 RES     
    2765 O           49.3310    84.6780     8.0710 O             1 RES     
    2766 O            3.8620    66.9500     1.4150 O             1 RES     
    2767 O            6.5610    59.2230     3.8240 O             1 RES     
    2768 O           34.6850    62.5290    11.3780 O             1 RES     
    2769 Si          24.1050    89.4900    10.4800 Si            1 RES     
    2770 O           33.2570    50.2650     5.6660 O             1 RES     
    2771 O           22.7900    59.8900     7.1890 O             1 RES     
    2772 O           32.6950    85.6060     6.7950 O             1 RES     
    2773 OS           5.9340    78.2390    12.2320 OS            1 RES     
    2774 O           29.9530    65.9870     4.5410 O             1 RES     
    2775 Si          45.8740    63.8780     8.0790 Si            1 RES     
    2776 O           43.1760    74.2670    13.5710 O             1 RES     
    2777 O           34.1640    67.8210    10.9570 O             1 RES     
    2778 Si          49.1160    70.2060    11.9690 Si            1 RES     
    2779 O           15.7400    60.8380     8.1330 O             1 RES     
    2780 Si           5.7440    96.3750     9.5310 Si            1 RES     
    2781 O           38.2740    74.3050    10.1730 O             1 RES     
    2782 O           43.1520    51.7600     6.8610 O             1 RES     
    2783 O           24.4440    66.8930     9.2070 O             1 RES     
    2784 Si          47.1230    94.1060     8.0430 Si            1 RES     
    2785 Si          32.3110    63.8020     4.0170 Si            1 RES     
    2786 O           27.0840    50.2090     8.7460 O             1 RES     
    2787 Si          42.5260    74.7440    12.2770 Si            1 RES     
    2788 O           48.5480    59.5350     6.5140 O             1 RES     
    2789 O           32.0830    55.2400     9.5810 O             1 RES     
    2790 Si          30.7770    56.9750     6.3810 Si            1 RES     
    2791 O           32.6560    67.3460     3.5770 O             1 RES     
    2792 Si          22.9830    96.9500     5.2330 Si            1 RES     
    2793 Si          10.7820    72.8880     7.5800 Si            1 RES     
    2794 O           37.9150    85.4680     2.4360 O             1 RES     
    2795 Si          28.5620    60.2560     3.2980 Si            1 RES     
    2796 O           39.5970    58.4610     6.8880 O             1 RES     
    2797 OS          28.0860    77.0470    12.8440 OS            1 RES     
    2798 Si          12.4540    50.0520     9.2110 Si            1 RES     
    2799 O           25.1730    59.3400     6.4250 O             1 RES     
    2800 O           33.3330    94.0330    10.0310 O             1 RES     
    2801 O           41.8390    74.0760     5.2260 O             1 RES     
    2802 Si          37.3600    67.2670     7.9960 Si            1 RES     
    2803 Si          28.2610    78.7300     5.8670 Si            1 RES     
    2804 Si          30.2820    58.1480    12.0040 Si            1 RES     
    2805 O            3.8730    52.3210     7.7110 O             1 RES     
    2806 OS           9.8770    99.4910    12.5530 OS            1 RES     
    2807 O           14.0220    60.2330    11.5570 O             1 RES     
    2808 Si          22.5800    63.5060     8.3100 Si            1 RES     
    2809 O           49.1180    51.8730     9.3660 O             1 RES     
    2810 Si          48.9490    64.0960     8.0240 Si            1 RES     
    2811 Si          46.8790    53.8960     6.8860 Si            1 RES     
    2812 O           35.4650    82.8620     6.0240 O             1 RES     
    2813 O           27.1510    87.9040     8.7450 O             1 RES     
    2814 Si          17.7620    73.1290     3.9820 Si            1 RES     
    2815 O           26.4320    67.0710     7.9550 O             1 RES     
    2816 OS          23.7870    78.9780    13.9750 OS            1 RES     
    2817 O           14.9030    72.0870     6.1110 O             1 RES     
    2818 O           16.5420    93.3890     8.1150 O             1 RES     
    2819 O            0.9190    72.9880     4.2150 O             1 RES     
    2820 Si          17.7200    63.2740     4.9340 Si            1 RES     
    2821 O            5.1420    92.4580     8.9610 O             1 RES     
    2822 O           34.5830    58.8080     5.8920 O             1 RES     
    2823 O            0.6930    72.6550     1.5560 O             1 RES     
    2824 O           27.9120    94.4110     6.9660 O             1 RES     
    2825 Si          48.7060    62.1020    12.1750 Si            1 RES     
    2826 O           18.3710    63.4360    11.6530 O             1 RES     
    2827 O           40.0080    54.3710    11.6840 O             1 RES     
    2828 O           18.3840    64.6960     5.1130 O             1 RES     
    2829 O            5.2630    96.3220    11.0400 O             1 RES     
    2830 O           47.8390    71.1070     5.3680 O             1 RES     
    2831 Si          26.3970    65.0080    12.4620 Si            1 RES     
    2832 O           42.3170    76.3140     6.2530 O             1 RES     
    2833 O           25.3350    57.2390    10.7060 O             1 RES     
    2834 Si          31.4810    76.0880     8.1040 Si            1 RES     
    2835 O           49.2420    86.2610     5.9950 O             1 RES     
    2836 O           46.9280    52.4810     9.7930 O             1 RES     
    2837 O           36.5390    80.8970     7.4160 O             1 RES     
    2838 O           32.5680    71.7720     6.0700 O             1 RES     
    2839 O            1.2920    69.6120     8.2810 O             1 RES     
    2840 O           24.1240    62.2340     5.0580 O             1 RES     
    2841 Si           3.8400    53.8590     8.0030 Si            1 RES     
    2842 Si           2.7330    57.5870     9.8720 Si            1 RES     
    2843 O            7.5060    75.9090    11.4880 O             1 RES     
    2844 Si           8.4160    74.7610     7.8710 Si            1 RES     
    2845 OS           1.2370    66.9980    13.2580 OS            1 RES     
    2846 O           14.4070    52.7210     7.7180 O             1 RES     
    2847 O           25.0570    90.4720    11.2770 O             1 RES     
    2848 O           21.3450    81.9200     4.4470 O             1 RES     
    2849 Si          11.9350    89.3810     9.6200 Si            1 RES     
    2850 Si          12.9040    52.3990     7.3500 Si            1 RES     
    2851 O           34.6530    54.1580     4.0910 O             1 RES     
    2852 Si          20.6580    82.5660     5.7020 Si            1 RES     
    2853 O            9.9550    56.7670    10.5320 O             1 RES     
    2854 O            6.3270    99.7210     5.6860 O             1 RES     
    2855 O           28.0230    73.1170     4.3880 O             1 RES     
    2856 Si          13.5940    51.3770     4.4050 Si            1 RES     
    2857 O           26.0460    62.7870     7.0520 O             1 RES     
    2858 Si           8.1330    89.0510    11.0320 Si            1 RES     
    2859 O           29.3400    50.0210     9.9030 O             1 RES     
    2860 OS          20.6290    69.5290    12.8240 OS            1 RES     
    2861 O           46.3110    66.6070     5.0460 O             1 RES     
    2862 O           35.1690    59.0720     8.2150 O             1 RES     
    2863 O           22.7640    86.2150    10.5800 O             1 RES     
    2864 O           21.7240    54.2780    11.3080 O             1 RES     
    2865 O           30.1630    69.2540     8.8420 O             1 RES     
    2866 Si          15.8320    67.6140    10.7090 Si            1 RES     
    2867 O           49.4760    89.6740     5.8810 O             1 RES     
    2868 O           17.5210    63.0590     3.3260 O             1 RES     
    2869 Si          13.2090    93.8680     5.5150 Si            1 RES     
    2870 O           36.7560    78.3420     3.2740 O             1 RES     
    2871 O            0.1930    58.2110     7.5440 O             1 RES     
    2872 O           40.9160    58.9220     9.0310 O             1 RES     
    2873 Si          35.5870    98.5000    12.5270 Si            1 RES     
    2874 OS          32.5230    80.9610    12.8910 OS            1 RES     
    2875 Si          26.3850    80.8540     4.7940 Si            1 RES     
    2876 Si          21.2500    50.8260    12.5180 Si            1 RES     
    2877 O           27.9370    78.7950     7.4510 O             1 RES     
    2878 Si          32.3110    51.7010    11.9900 Si            1 RES     
    2879 O           20.8080    53.1280     6.0350 O             1 RES     
    2880 O           40.3960    69.4270    10.0400 O             1 RES     
    2881 O            8.1620    94.6540     3.9810 O             1 RES     
    2882 O           31.2400    97.1840     7.4300 O             1 RES     
    2883 O           23.7120    52.8520    10.9510 O             1 RES     
    2884 Si          21.9530    99.8670     5.1650 Si            1 RES     
    2885 O           28.4080    82.9060    12.4150 O             1 RES     
    2886 Si           2.6000    89.6720    10.1250 Si            1 RES     
    2887 Si          14.2540    70.1500     9.5970 Si            1 RES     
    2888 Si          33.7110    61.3420    11.5940 Si            1 RES     
    2889 O            2.3200    86.0940    10.2110 O             1 RES     
    2890 Si          33.6340    86.2480     7.9020 Si            1 RES     
    2891 O           10.7800    55.6640    12.5930 O             1 RES     
    2892 O           24.1490    93.2310    10.0890 O             1 RES     
    2893 O           43.1390    78.5830    10.8060 O             1 RES     
    2894 O           47.2410    55.9820    11.9870 O             1 RES     
    2895 Si          13.1380    60.7930    10.3950 Si            1 RES     
    2896 O           17.1380    83.0670    11.5390 O             1 RES     
    2897 Si          26.4910    79.8150    11.3490 Si            1 RES     
    2898 O           18.5480    62.0030     5.4170 O             1 RES     
    2899 O           31.5450    85.9710     4.5650 O             1 RES     
    2900 Si           0.7740    97.0520     3.7350 Si            1 RES     
    2901 O            2.5520    57.5940     3.3250 O             1 RES     
    2902 Si          45.9920    82.1560     8.3110 Si            1 RES     
    2903 O           44.3380    96.0900     7.4270 O             1 RES     
    2904 Si          43.0130    79.5670     5.5960 Si            1 RES     
    2905 Si          43.2570    54.0900    10.1390 Si            1 RES     
    2906 Si          27.4220    53.6870    10.1520 Si            1 RES     
    2907 O           20.0630    89.6790     1.9350 O             1 RES     
    2908 O           17.8060    50.4220     4.2120 O             1 RES     
    2909 O           38.2740    56.0910    11.2360 O             1 RES     
    2910 O            4.5930    89.7580     5.1360 O             1 RES     
    2911 Si          28.9100    51.9180     6.1170 Si            1 RES     
    2912 O           11.7560    56.7500     4.0410 O             1 RES     
    2913 Si          24.7800    87.9610     5.9250 Si            1 RES     
    2914 O            9.0370    58.2650     8.6630 O             1 RES     
    2915 O           24.0770    62.4170     2.5300 O             1 RES     
    2916 O           37.7560    82.9340     2.4400 O             1 RES     
    2917 OS           4.5950    99.1400    14.5170 OS            1 RES     
    2918 O           24.6140    71.0140    11.8510 O             1 RES     
    2919 O           22.9150    75.2500     2.6540 O             1 RES     
    2920 O           10.7970    97.4620     6.5500 O             1 RES     
    2921 Si          21.8370    91.1810     9.1520 Si            1 RES     
    2922 O            9.1480    57.9230     3.5290 O             1 RES     
    2923 Si          40.5370    59.9940    10.0790 Si            1 RES     
    2924 O            5.7350    55.3190    11.2190 O             1 RES     
    2925 O            1.9570    88.9090     4.9630 O             1 RES     
    2926 O           39.2870    90.1540    10.0700 O             1 RES     
    2927 O            3.8470    67.0590     4.3490 O             1 RES     
    2928 O           17.8950    91.6230     7.1700 O             1 RES     
    2929 Si          41.1600    82.1080     9.2800 Si            1 RES     
    2930 Si           7.5300    68.7090     4.5500 Si            1 RES     
    2931 O           39.2430    60.7900     9.7430 O             1 RES     
    2932 O           38.8950    64.7690     9.3090 O             1 RES     
    2933 Si          32.5590    87.3940    10.4550 Si            1 RES     
    2934 O           36.1270    96.5280     6.8370 O             1 RES     
    2935 O           35.6710    57.5290     3.6010 O             1 RES     
    2936 Si          41.2410    55.5420     6.0670 Si            1 RES     
    2937 O           44.3530    97.2570     5.2990 O             1 RES     
    2938 O           21.0960    61.5510    11.3260 O             1 RES     
    2939 O           36.3140    97.7270     2.8030 O             1 RES     
    2940 Si           3.2690    57.8770     4.6890 Si            1 RES     
    2941 Si          44.3260    82.8360    10.9620 Si            1 RES     
    2942 O            5.9080    94.4830     4.7470 O             1 RES     
    2943 O           37.8670    98.5510     6.9750 O             1 RES     
    2944 Si          47.7890    79.7170     7.8140 Si            1 RES     
    2945 O           10.5360    95.8010    10.8160 O             1 RES     
    2946 O           30.0420    56.9110     3.1560 O             1 RES     
    2947 O           29.3280    75.3040     5.3200 O             1 RES     
    2948 O            2.6590    54.1220     4.7300 O             1 RES     
    2949 O            3.6920    89.0040     2.9030 O             1 RES     
    2950 O           46.0630    57.6860    10.0550 O             1 RES     
    2951 Si          42.8980    89.7550    11.7930 Si            1 RES     
    2952 Si          44.6300    82.1160     5.5620 Si            1 RES     
    2953 Si           6.6730    78.6420     4.1830 Si            1 RES     
    2954 O           35.2920    62.1580     4.2350 O             1 RES     
    2955 O           23.1660    65.8090     4.5290 O             1 RES     
    2956 OS          36.2370    83.6100    13.1820 OS            1 RES     
    2957 O            7.7920    69.5000     3.2450 O             1 RES     
    2958 Si          39.0220    89.1650     3.7950 Si            1 RES     
    2959 O           38.6900    89.3440     5.2950 O             1 RES     
    2960 Si          20.5840    96.4850     9.0350 Si            1 RES     
    2961 Si          26.1220    56.8770     3.7100 Si            1 RES     
    2962 O           20.6050    77.2480    10.9330 O             1 RES     
    2963 O           42.4750    93.0040     4.0240 O             1 RES     
    2964 O           48.6060    66.6050     3.7510 O             1 RES     
    2965 OS          31.7590    78.7610    13.1040 OS            1 RES     
    2966 O           17.4440    60.2380     6.5740 O             1 RES     
    2967 O           29.8050    59.3610     3.5760 O             1 RES     
    2968 O           24.9300    52.2730     5.9240 O             1 RES     
    2969 O           28.3520    60.3970     1.7180 O             1 RES     
    2970 O           45.0480    99.2860     3.9300 O             1 RES     
    2971 O           48.9510    91.4400     9.0160 O             1 RES     
    2972 Si          23.2200    94.8880     8.7860 Si            1 RES     
    2973 O           46.5110    80.6330     8.0910 O             1 RES     
    2974 Si           2.9310    70.3950    11.4460 Si            1 RES     
    2975 O           37.0440    86.4570     7.0990 O             1 RES     
    2976 OS          23.2340    95.3400    13.3730 OS            1 RES     
    2977 Si           4.5790    67.8720    12.0130 Si            1 RES     
    2978 O           31.9420    81.6430     9.0490 O             1 RES     
    2979 Si          20.8980    71.6300     7.9010 Si            1 RES     
    2980 O           20.6810    74.5750    10.5290 O             1 RES     
    2981 Si          49.8680    89.7510    11.6200 Si            1 RES     
    2982 O           46.8890    91.2540    10.2250 O             1 RES     
    2983 Si          41.9310    79.5470    10.6970 Si            1 RES     
    2984 O            0.9740    55.9620     6.5700 O             1 RES     
    2985 O           15.6560    84.3010     8.0550 O             1 RES     
    2986 O           11.1760    99.7570    10.1540 O             1 RES     
    2987 O           16.9850    70.3870     6.9930 O             1 RES     
    2988 O           21.1540    72.3680     9.2110 O             1 RES     
    2989 Si           7.0370    54.9610    12.2210 Si            1 RES     
    2990 O            9.8820    85.6720     2.0770 O             1 RES     
    2991 O            2.4470    50.3440    10.6000 O             1 RES     
    2992 Si          34.4530    95.6960    12.7250 Si            1 RES     
    2993 O           35.4760    50.9680    10.6270 O             1 RES     
    2994 O           38.3100    66.9160     6.8450 O             1 RES     
    2995 Si          49.5990    60.9130     3.3680 Si            1 RES     
    2996 O           30.3820    90.4390    11.8390 O             1 RES     
    2997 O            2.3780    98.0490     9.1800 O             1 RES     
    2998 O           11.9200    85.5030     8.8340 O             1 RES     
    2999 Si          11.6610    92.2820    11.3350 Si            1 RES     
    3000 O           16.2840    52.2140     9.1100 O             1 RES     
    3001 O           28.8800    73.1380     6.8910 O             1 RES     
    3002 Si          15.1530    58.2330     3.0780 Si            1 RES     
    3003 O           37.6080    66.6840     3.1480 O             1 RES     
    3004 O           16.5280    73.4710     4.8550 O             1 RES     
    3005 O            2.0400    69.3430    10.6480 O             1 RES     
    3006 O           26.6770    82.2300     8.4070 O             1 RES     
    3007 O           34.8490    95.1810     8.5100 O             1 RES     
    3008 O           44.2890    89.3050    11.3820 O             1 RES     
    3009 O           33.8490    70.4930    11.2560 O             1 RES     
    3010 O           22.5550    89.5800     2.1820 O             1 RES     
    3011 O           42.6690    91.1440    11.1220 O             1 RES     
    3012 O            1.5370    76.3480    11.4820 O             1 RES     
    3013 O           31.1460    96.0030     2.2060 O             1 RES     
    3014 O            6.7110    87.0250     8.4600 O             1 RES     
    3015 O           40.4520    76.0420     4.4160 O             1 RES     
    3016 Si           1.4310    79.3570     4.3530 Si            1 RES     
    3017 Si          29.4410    94.1440     6.3630 Si            1 RES     
    3018 Si          34.5620    87.2000    12.6940 Si            1 RES     
    3019 O           15.4150    67.9690     3.7480 O             1 RES     
    3020 O           48.6890    79.9460     9.1440 O             1 RES     
    3021 Si          19.7040    85.1190     4.3010 Si            1 RES     
    3022 Si           9.2350    90.2780     8.5050 Si            1 RES     
    3023 O           10.1700    72.6780     3.4770 O             1 RES     
    3024 O           28.0260    98.4980     3.9550 O             1 RES     
    3025 Si          10.2590    57.0960     4.3300 Si            1 RES     
    3026 Si          10.7680    50.3680     4.1590 Si            1 RES     
    3027 O            7.4330    83.4430    10.3300 O             1 RES     
    3028 O           37.5930    62.8270     9.0240 O             1 RES     
    3029 O           39.2760    99.7930     5.2960 O             1 RES     
    3030 Si          40.4220    72.1860     8.0240 Si            1 RES     
    3031 O           41.5440    80.2860     5.8490 O             1 RES     
    3032 Si          15.1180    73.4980     5.5180 Si            1 RES     
    3033 O           37.2250    94.6220     8.1630 O             1 RES     
    3034 Si          37.4620    79.9450     6.6480 Si            1 RES     
    3035 O           28.2940    52.3970     9.6980 O             1 RES     
    3036 Si          49.9060    66.3460     2.8790 Si            1 RES     
    3037 O            2.1370    71.5170    12.1680 O             1 RES     
    3038 O           43.6060    84.1830    10.4770 O             1 RES     
    3039 Si          40.0440    72.8680     2.7750 Si            1 RES     
    3040 Si          30.3540    99.4740    11.0060 Si            1 RES     
    3041 O           10.4660    78.0500     3.3230 O             1 RES     
    3042 O           43.5030    79.4090     4.0760 O             1 RES     
    3043 O           12.3350    84.3870    10.9070 O             1 RES     
    3044 Si          30.2830    85.4870    10.0540 Si            1 RES     
    3045 O            1.5180    57.7760    10.8100 O             1 RES     
    3046 OS          13.9350    98.6380    12.4890 OS            1 RES     
    3047 O           11.8470    65.4370     5.8870 O             1 RES     
    3048 Si          36.3330    91.9210    10.7280 Si            1 RES     
    3049 Si          35.4250    99.3560     9.7630 Si            1 RES     
    3050 O           20.1260    60.3950     6.6900 O             1 RES     
    3051 O           42.1540    53.4420    10.9540 O             1 RES     
    3052 OS          48.7590    54.2680    13.4230 OS            1 RES     
    3053 O           34.3070    95.7400    11.1810 O             1 RES     
    3054 Si          28.9580    69.7090    12.6810 Si            1 RES     
    3055 O           13.5450    52.5430     3.3690 O             1 RES     
    3056 Si          10.8420    76.5980     2.8430 Si            1 RES     
    3057 Si          20.2770    73.7320     5.6520 Si            1 RES     
    3058 Si          14.4350    88.4700     8.2500 Si            1 RES     
    3059 O           14.3810    88.4590    11.4540 O             1 RES     
    3060 Si          40.9010    57.9910    12.3730 Si            1 RES     
    3061 Si           4.0140    62.4090     2.8490 Si            1 RES     
    3062 O           46.4900    55.3760     6.6270 O             1 RES     
    3063 O           43.7220    55.6280     2.8890 O             1 RES     
    3064 OS           9.7740    58.0690    12.8280 OS            1 RES     
    3065 O           11.2780    72.8880     6.1010 O             1 RES     
    3066 Si          34.9060    69.1140     7.6960 Si            1 RES     
    3067 O           14.3030    57.0030     3.5270 O             1 RES     
    3068 O            7.6360    54.7540     3.4860 O             1 RES     
    3069 O            1.1770    86.5940     7.9670 O             1 RES     
    3070 Si          41.8900    86.6090     5.6030 Si            1 RES     
    3071 Si           8.3270    74.6850    10.8860 Si            1 RES     
    3072 Si          48.5580    87.0190     4.7550 Si            1 RES     
    3073 O           18.0280    74.1480     2.7820 O             1 RES     
    3074 O           38.2120    90.3700     3.1680 O             1 RES     
    3075 O           13.2290    68.9340     4.1960 O             1 RES     
    3076 O            1.5240    92.1600     5.3490 O             1 RES     
    3077 O           34.2080    91.4020     2.9950 O             1 RES     
    3078 O            9.9340    80.2440     7.3410 O             1 RES     
    3079 O            2.0630    65.5610     2.9380 O             1 RES     
    3080 Si          27.0240    78.3330     8.6310 Si            1 RES     
    3081 OS          38.5380    90.3870    12.5310 OS            1 RES     
    3082 O           35.8430    55.7330    11.5410 O             1 RES     
    3083 O           27.5350    52.5990     5.9240 O             1 RES     
    3084 Si          43.6470    56.3850     4.3100 Si            1 RES     
    3085 O           42.4490    95.0810     5.6010 O             1 RES     
    3086 O           38.6840    84.5900     7.1850 O             1 RES     
    3087 Si          43.7680    76.7680     6.7440 Si            1 RES     
    3088 O           47.2250    76.1170     2.2900 O             1 RES     
    3089 O            4.9090    67.5310    10.4690 O             1 RES     
    3090 O           28.7750    55.2600     1.7050 O             1 RES     
    3091 Si          31.4390    71.9590     5.0050 Si            1 RES     
    3092 Si          21.4930    60.7350     7.5580 Si            1 RES     
    3093 O           13.9710    56.4620     5.8890 O             1 RES     
    3094 O           33.0330    63.1450     8.0570 O             1 RES     
    3095 Si          34.9240    83.4730     4.7240 Si            1 RES     
    3096 O           26.3210    82.7020    13.5690 O             1 RES     
    3097 Si          31.5440    91.4570    12.4750 Si            1 RES     
    3098 O           25.4890    63.7300    12.0520 O             1 RES     
    3099 Si          41.1940    75.4280     5.6740 Si            1 RES     
    3100 Si          25.0190    83.6200     4.5810 Si            1 RES     
    3101 O           25.8520    87.3180     4.9610 O             1 RES     
    3102 O           26.2680    72.5560     2.5550 O             1 RES     
    3103 O           33.7020    53.5210     8.8710 O             1 RES     
    3104 Si          49.5320    86.2110     7.5480 Si            1 RES     
    3105 O            7.9020    62.8950     5.8120 O             1 RES     
    3106 Si          32.6620    71.5750    11.0900 Si            1 RES     
    3107 Si          41.8410    87.7970     9.8630 Si            1 RES     
    3108 O           24.8970    88.6820     9.4090 O             1 RES     
    3109 O           19.4320    80.9940     8.6450 O             1 RES     
    3110 O           23.0340    56.4600    10.7360 O             1 RES     
    3111 Si           6.1230    71.0220     6.0700 Si            1 RES     
    3112 O           26.2580    57.8970     4.8800 O             1 RES     
    3113 O           24.7020    77.8820     4.0000 O             1 RES     
    3114 O            6.7870    93.4910    11.0880 O             1 RES     
    3115 O            4.7200    76.2960     6.7230 O             1 RES     
    3116 O           37.7030    78.5370     7.3720 O             1 RES     
    3117 O           34.9560    83.9470    11.0150 O             1 RES     
    3118 O           14.4000    71.2030    10.7780 O             1 RES     
    3119 O           17.2170    74.9120    13.6390 O             1 RES     
    3120 O            4.4340    96.6510     3.6400 O             1 RES     
    3121 O           30.7400    91.4030     3.7310 O             1 RES     
    3122 O            4.3840    63.3880    11.0640 O             1 RES     
    3123 OS          22.1030    61.6210    13.7130 OS            1 RES     
    3124 Si          31.4340    97.1230     9.0250 Si            1 RES     
    3125 OS          36.8030    92.6740    12.0850 OS            1 RES     
    3126 Si          22.1270    85.1590     9.6950 Si            1 RES     
    3127 Si           4.3300    91.3140     8.1820 Si            1 RES     
    3128 O           40.7490    78.5730    10.2950 O             1 RES     
    3129 O           32.6930    90.5850     4.9870 O             1 RES     
    3130 O           31.9860    53.9110     4.1460 O             1 RES     
    3131 O           45.5510    59.8530     8.1410 O             1 RES     
    3132 Si          30.2600    76.5190     5.2240 Si            1 RES     
    3133 Si          30.8330    66.8930    12.4020 Si            1 RES     
    3134 O           33.2690    53.5440     1.8200 O             1 RES     
    3135 Si          33.1600    78.3150     9.5480 Si            1 RES     
    3136 O           44.0770    97.9320    12.2840 O             1 RES     
    3137 O           47.5480    88.0060     5.6180 O             1 RES     
    3138 Si          37.6450    77.2860     8.3550 Si            1 RES     
    3139 O           27.5640    74.5850    13.4620 O             1 RES     
    3140 O            7.1940    74.1080     3.5390 O             1 RES     
    3141 Si          16.4750    50.4530     5.0370 Si            1 RES     
    3142 OS          19.0150    83.9640    12.9490 OS            1 RES     
    3143 Si          13.7360    96.8480     4.7960 Si            1 RES     
    3144 O           45.7160    53.1720     7.7260 O             1 RES     
    3145 O           47.2460    93.8840     6.4930 O             1 RES     
    3146 O           33.8920    57.0090    12.1530 O             1 RES     
    3147 Si          39.0750    55.0900     3.8950 Si            1 RES     
    3148 O            7.5480    71.7370     2.2120 O             1 RES     
    3149 O           38.7150    61.9880     2.8450 O             1 RES     
    3150 O           17.3960    95.5620     7.7220 O             1 RES     
    3151 Si          25.4570    50.0150     8.9280 Si            1 RES     
    3152 O           26.8410    81.3830    11.3970 O             1 RES     
    3153 Si           6.6870    78.7520     8.6050 Si            1 RES     
    3154 O           22.9350    58.4130     3.4420 O             1 RES     
    3155 O           39.6580    73.4910     8.2180 O             1 RES     
    3156 O           40.5220    63.4140     7.5850 O             1 RES     
    3157 O           12.5910    90.7200     5.2870 O             1 RES     
    3158 OS          29.9960    71.1650    13.4540 OS            1 RES     
    3159 Si          41.0860    62.8460     6.2010 Si            1 RES     
    3160 Si          16.5360    92.3980     6.8450 Si            1 RES     
    3161 O            5.2850    79.5070     8.5800 O             1 RES     
    3162 Si          45.8050    76.2980     2.8180 Si            1 RES     
    3163 O           13.0470    96.5060     7.9250 O             1 RES     
    3164 O            0.7180    99.8240     8.9760 O             1 RES     
    3165 Si          11.1980    85.2150    10.2120 Si            1 RES     
    3166 O           16.1250    77.2630     7.1250 O             1 RES     
    3167 O           42.0090    58.9310     6.7160 O             1 RES     
    3168 O           29.4600    57.4260     7.0500 O             1 RES     
    3169 Si          24.4940    66.1220     5.1530 Si            1 RES     
    3170 O           14.2950    74.3120     4.4240 O             1 RES     
    3171 O           29.1570    82.0700     6.3030 O             1 RES     
    3172 O           16.2070    92.0650     2.8460 O             1 RES     
    3173 Si           9.1930    52.1070     6.1930 Si            1 RES     
    3174 O           22.3780    60.9030     3.1270 O             1 RES     
    3175 O           29.5450    77.8690     5.5900 O             1 RES     
    3176 Si           9.7130    85.8030     6.0890 Si            1 RES     
    3177 O           16.2530    89.6080     2.5560 O             1 RES     
    3178 O           36.1380    84.2730     4.0100 O             1 RES     
    3179 O           38.8820    92.7470     2.5550 O             1 RES     
    3180 O           41.4980    54.0980     6.5750 O             1 RES     
    3181 O           44.7810    91.7280     3.7870 O             1 RES     
    3182 Si          21.5530    87.3940     5.0980 Si            1 RES     
    3183 O           15.2540    96.7190     5.0130 O             1 RES     
    3184 Si          48.3050    58.8110     5.0710 Si            1 RES     
    3185 Si          19.3380    86.4260     9.9850 Si            1 RES     
    3186 O           47.7060    58.7760     8.5610 O             1 RES     
    3187 O           16.0610    56.3310     7.6540 O             1 RES     
    3188 O           48.3560    60.4680     2.3570 O             1 RES     
    3189 Si           7.5970    65.8860     3.3550 Si            1 RES     
    3190 Si          33.3320    92.4600    10.1280 Si            1 RES     
    3191 Si          46.0100    86.0040     3.3990 Si            1 RES     
    3192 O           46.9380    90.5590     4.9240 O             1 RES     
    3193 Si          14.4050    68.2450     4.9420 Si            1 RES     
    3194 O           46.1040    61.4080     5.6420 O             1 RES     
    3195 O           27.3830    58.8200     6.7370 O             1 RES     
    3196 O           31.8700    65.0560     3.2500 O             1 RES     
    3197 Si          15.9070    60.0890     6.7220 Si            1 RES     
    3198 O           10.8390    65.5770    10.8400 O             1 RES     
    3199 Si           3.8790    73.8550     9.3030 Si            1 RES     
    3200 O           10.9570    71.5610     8.4690 O             1 RES     
    3201 Si           7.0870    77.4220    11.3940 Si            1 RES     
    3202 O           42.1170    70.9600    11.0440 O             1 RES     
    3203 O           41.2090    56.6220     7.2350 O             1 RES     
    3204 Si           3.2300    66.7320     5.8630 Si            1 RES     
    3205 O           25.0490    91.8660     6.4780 O             1 RES     
    3206 Si           1.2730    94.7730    10.5840 Si            1 RES     
    3207 O            2.6120    96.4420     7.0790 O             1 RES     
    3208 O           13.6390    99.8840    10.2120 O             1 RES     
    3209 O           30.6700    84.1810     9.2810 O             1 RES     
    3210 Si          41.1270    92.6480     8.1450 Si            1 RES     
    3211 O           40.0150    56.7220    12.7820 O             1 RES     
    3212 OS          46.5220    64.8410    13.6800 OS            1 RES     
    3213 O           19.5030    87.4470    11.1780 O             1 RES     
    3214 O           40.1420    68.5980     7.4890 O             1 RES     
    3215 O            6.4810    95.2430    12.8770 O             1 RES     
    3216 O            3.6000    94.9390     4.7370 O             1 RES     
    3217 O           40.1310    82.9500    10.1810 O             1 RES     
    3218 Si          26.6890    66.7210     3.0580 Si            1 RES     
    3219 O            7.4210    83.3580     4.5400 O             1 RES     
    3220 O           47.3600    82.4420     2.6270 O             1 RES     
    3221 O           38.3920    95.2230     3.4960 O             1 RES     
    3222 O            2.3880    68.0540     6.4230 O             1 RES     
    3223 O           25.3700    86.4550     2.4690 O             1 RES     
    3224 O           33.4470    63.1420     3.1830 O             1 RES     
    3225 OS          24.0410    73.1650    13.5520 OS            1 RES     
    3226 O           36.7380    84.8560     9.1230 O             1 RES     
    3227 O           43.6660    85.3340     8.4330 O             1 RES     
    3228 O           39.8860    52.2040    10.2160 O             1 RES     
    3229 OS          49.6020    62.7850    13.2680 OS            1 RES     
    3230 O           11.1720    68.9820     5.3790 O             1 RES     
    3231 O           14.0480    59.3350     3.0620 O             1 RES     
    3232 O           42.7380    84.8950     2.7400 O             1 RES     
    3233 O           45.4570    80.3800     2.5570 O             1 RES     
    3234 O           34.2480    85.0790     8.7640 O             1 RES     
    3235 O           14.3800    76.3200    10.8220 O             1 RES     
    3236 Si           5.3480    99.4170    12.7330 Si            1 RES     
    3237 O           34.2900    54.8140    13.7120 O             1 RES     
    3238 O           41.5300    61.3990     6.3670 O             1 RES     
    3239 O           46.0850    85.4200     1.9540 O             1 RES     
    3240 Si          11.4050    72.6560     4.4670 Si            1 RES     
    3241 Si           5.4440    96.3220    12.6150 Si            1 RES     
    3242 O           47.9650    53.8760     8.0230 O             1 RES     
    3243 O           22.6100    74.2770     9.1200 O             1 RES     
    3244 O            8.7410    53.2920     5.2770 O             1 RES     
    3245 O           43.1120    63.3500    10.8740 O             1 RES     
    3246 O           40.3440    98.4660     7.4730 O             1 RES     
    3247 OS           3.4810    54.3130    11.9250 OS            1 RES     
    3248 OS          15.4450    87.0720    13.3770 OS            1 RES     
    3249 O           30.5520    82.6320    11.0970 O             1 RES     
    3250 O           14.9040    63.0700     7.7000 O             1 RES     
    3251 Si          43.4640    84.5120     4.1050 Si            1 RES     
    3252 O           37.2750    91.3190     6.3480 O             1 RES     
    3253 O           16.5790    58.1120     3.7590 O             1 RES     
    3254 O           44.9030    67.5790     9.8250 O             1 RES     
    3255 O           42.4170    73.6620    11.1840 O             1 RES     
    3256 Si          11.8210    69.6120     4.0960 Si            1 RES     
    3257 O            4.2290    54.2180     9.5200 O             1 RES     
    3258 O           11.9240    53.5670     7.9060 O             1 RES     
    3259 Si          23.2640    78.3340     4.5650 Si            1 RES     
    3260 Si          10.6550    65.6260     6.9070 Si            1 RES     
    3261 Si          16.6240    97.4700     4.8540 Si            1 RES     
    3262 O           42.4230    93.5150    11.6360 O             1 RES     
    3263 O           44.6300    63.0840     4.7050 O             1 RES     
    3264 O           24.8870    73.7760     8.7800 O             1 RES     
    3265 Si          44.1340    64.4970    10.5390 Si            1 RES     
    3266 O            1.7890    61.3740     9.7400 O             1 RES     
    3267 Si          36.3550    98.1240     7.1680 Si            1 RES     
    3268 O           10.2310    99.0210     4.5630 O             1 RES     
    3269 O           28.3610    74.1750     9.0730 O             1 RES     
    3270 O           20.6590    93.6390     4.2780 O             1 RES     
    3271 Si          19.3750    91.1540     7.3020 Si            1 RES     
    3272 O           30.9560    61.5940     8.6360 O             1 RES     
    3273 OS          18.8340    59.1030    13.2000 OS            1 RES     
    3274 OS          18.5960    67.9340    13.0090 OS            1 RES     
    3275 O           46.4730    51.5150     3.5410 O             1 RES     
    3276 O           12.2390    75.8070     3.0760 O             1 RES     
    3277 O           34.3740    71.7230     2.4900 O             1 RES     
    3278 O            7.1170    99.6020     8.2970 O             1 RES     
    3279 O            7.2630    90.2660     5.4760 O             1 RES     
    3280 Si           5.9150    89.6130     6.0160 Si            1 RES     
    3281 O            3.6420    98.2090     1.7190 O             1 RES     
    3282 Si           9.3260    80.2780     8.7720 Si            1 RES     
    3283 O           21.8550    62.2470     7.6560 O             1 RES     
    3284 Si          32.0220    95.5090     3.4310 Si            1 RES     
    3285 Si          26.3280    86.2830     3.8650 Si            1 RES     
    3286 Si          29.2960    99.2110     4.6370 Si            1 RES     
    3287 Si           9.8470    99.8200    11.0250 Si            1 RES     
    3288 O           23.2350    87.5940     5.5630 O             1 RES     
    3289 O            4.4610    54.4630     6.6550 O             1 RES     
    3290 O           37.6840    54.5540     4.2990 O             1 RES     
    3291 O            8.1540    93.7040     6.2390 O             1 RES     
    3292 O           16.5850    53.8740     7.1990 O             1 RES     
    3293 Si          43.4070    64.0150     4.5790 Si            1 RES     
    3294 O           29.2980    88.8270     7.6790 O             1 RES     
    3295 O           29.3870    71.7350     9.2020 O             1 RES     
    3296 Si          19.1950    99.8120     3.6240 Si            1 RES     
    3297 O           38.6720    88.0910    11.0390 O             1 RES     
    3298 Si          37.7770    85.5230     8.0530 Si            1 RES     
    3299 O            0.8420    73.7000    11.6950 O             1 RES     
    3300 Si          45.3090    96.5390     8.6930 Si            1 RES     
    3301 O           40.1670    82.8790     5.9980 O             1 RES     
    3302 O           49.4920    62.2080     4.3130 O             1 RES     
    3303 Si          43.2470    68.1450     6.8110 Si            1 RES     
    3304 O            1.2610    95.9670     4.7330 O             1 RES     
    3305 O           20.5560    56.5140    11.2540 O             1 RES     
    3306 Si          46.4700    71.9070     5.5860 Si            1 RES     
    3307 O           33.7270    54.7470    11.2180 O             1 RES     
    3308 O           48.7680    89.6940    10.5490 O             1 RES     
    3309 Si           3.4020    51.0840     6.7640 Si            1 RES     
    3310 O           21.3330    51.8710    11.3530 O             1 RES     
    3311 O           35.5060    61.1090     6.4490 O             1 RES     
    3312 O           26.7580    54.1720     8.6430 O             1 RES     
    3313 OS          44.5140    78.1680    12.7980 OS            1 RES     
    3314 O           37.1250    54.6340     6.7400 O             1 RES     
    3315 Si          42.0090    58.7670     3.2600 Si            1 RES     
    3316 Si          46.1000    62.5440     4.5270 Si            1 RES     
    3317 OS          49.5030    90.8540    12.6370 OS            1 RES     
    3318 O           11.7300    61.3630    10.8470 O             1 RES     
    3319 Si          10.5060    53.9990     8.3070 Si            1 RES     
    3320 O           26.4340    92.8610    11.3620 O             1 RES     
    3321 OS          10.2690    70.2770    12.7150 OS            1 RES     
    3322 O            4.0880    56.5780     5.0410 O             1 RES     
    3323 Si           4.7960    95.1350     3.8250 Si            1 RES     
    3324 Si          17.2500    86.7620     5.3500 Si            1 RES     
    3325 O           22.6580    85.0170     8.1920 O             1 RES     
    3326 O            4.7760    61.3850     3.7570 O             1 RES     
    3327 Si           2.1730    80.1660    10.6390 Si            1 RES     
    3328 O           29.6660    59.5910    12.2180 O             1 RES     
    3329 O            3.1690    61.5260     1.8630 O             1 RES     
    3330 Si           1.5830    69.4170     6.7290 Si            1 RES     
    3331 Si           4.1910    80.4610     4.9740 Si            1 RES     
    3332 O           18.7420    69.2920     3.6040 O             1 RES     
    3333 OS          29.6860    94.8840    11.6080 OS            1 RES     
    3334 Si          21.1900    92.2330     4.8640 Si            1 RES     
    3335 O           30.7800    70.5740     4.9990 O             1 RES     
    3336 O           19.1700    69.3410     6.1340 O             1 RES     
    3337 Si          21.9210    55.8130    11.6850 Si            1 RES     
    3338 O           30.8090    66.9810     1.4340 O             1 RES     
    3339 O           19.2280    84.6030     2.8800 O             1 RES     
    3340 Si           4.1090    55.0000     5.1770 Si            1 RES     
    3341 O            6.3600    68.8940     8.8740 O             1 RES     
    3342 O            6.2940    50.6990     3.4020 O             1 RES     
    3343 O           15.1280    53.2530    11.2180 O             1 RES     
    3344 Si          24.5940    66.9940    10.8350 Si            1 RES     
    3345 Si          12.2190    97.6710     7.2280 Si            1 RES     
    3346 O           37.6340    93.1750     4.6860 O             1 RES     
    3347 OS          40.8040    59.0420    13.7160 OS            1 RES     
    3348 Si          27.3070    95.2360     8.2250 Si            1 RES     
    3349 O           33.9980    72.9060     7.6760 O             1 RES     
    3350 O           45.1190    87.2770     3.0810 O             1 RES     
    3351 O            6.8140    97.4990     9.5180 O             1 RES     
    3352 O           14.2680    93.1000     4.5660 O             1 RES     
    3353 O           41.9410    88.7310    11.1050 O             1 RES     
    3354 O            5.3760    90.2880     7.4140 O             1 RES     
    3355 O           40.1690    93.8500     4.6990 O             1 RES     
    3356 O           27.7100    90.7150     6.5120 O             1 RES     
    3357 O           40.9140    91.0570     8.2180 O             1 RES     
    3358 O           30.0460    90.2740     5.7160 O             1 RES     
    3359 O           39.6660    77.1110    12.0460 O             1 RES     
    3360 O           17.3190    97.0070     3.5200 O             1 RES     
    3361 Si          32.9580    54.0070    10.1090 Si            1 RES     
    3362 Si          34.8320    84.0840    12.5900 Si            1 RES     
    3363 OS           7.6280    93.2180    13.5850 OS            1 RES     
    3364 Si          47.7210    76.6370     7.6180 Si            1 RES     
    3365 O           30.9160    76.5840     3.7620 O             1 RES     
    3366 O           23.9220    92.3280    12.3240 O             1 RES     
    3367 OS          25.8880    90.5100    13.6960 OS            1 RES     
    3368 O           36.9150    65.8830     8.6820 O             1 RES     
    3369 O           21.1230    97.8380     9.4230 O             1 RES     
    3370 O           44.2260    51.4090     2.5910 O             1 RES     
    3371 O           21.3940    74.2170     4.6260 O             1 RES     
    3372 OS          38.1040    75.3190    12.6240 OS            1 RES     
    3373 Si          32.5640    61.8050     8.6730 Si            1 RES     
    3374 O           33.7820    68.0900     7.4940 O             1 RES     
    3375 O            9.2800    89.5730    11.9060 O             1 RES     
    3376 O            1.9720    51.2120     6.1930 O             1 RES     
    3377 O           46.1200    97.9080     8.9550 O             1 RES     
    3378 O           15.0400    95.0910     8.8960 O             1 RES     
    3379 O           40.8230    75.8370     1.9520 O             1 RES     
    3380 O            5.1570    83.7200     3.2020 O             1 RES     
    3381 Si          43.0790    97.3120    11.1950 Si            1 RES     
    3382 O           21.8820    68.2290     2.1210 O             1 RES     
    3383 O            9.7870    91.1050     4.7360 O             1 RES     
    3384 O            6.1870    60.7460     5.5900 O             1 RES     
    3385 O           34.0590    99.7060     8.3830 O             1 RES     
    3386 O           46.9490    92.9200     4.2110 O             1 RES     
    3387 O           40.5380    89.4770     3.5280 O             1 RES     
    3388 O           25.0980    98.5330     8.5770 O             1 RES     
    3389 Si          33.8420    95.4100     9.7360 Si            1 RES     
    3390 O            1.0700    79.6330     2.7850 O             1 RES     
    3391 O           31.7480    96.3360     4.7500 O             1 RES     
    3392 O           46.7180    93.3970    11.7750 O             1 RES     
    3393 O           45.9950    75.4950     4.1030 O             1 RES     
    3394 Si          24.4620    70.2280     4.2260 Si            1 RES     
    3395 O            1.2180    90.0580    10.7650 O             1 RES     
    3396 O           49.7400    69.9800    10.4620 O             1 RES     
    3397 O           36.5850    57.6310    10.1330 O             1 RES     
    3398 O           32.3760    99.8430     3.1810 O             1 RES     
    3399 OS          29.5430    99.3210    12.4220 OS            1 RES     
    3400 Si          38.2170    98.4220    11.3390 Si            1 RES     
    3401 O           21.5430    81.5880     9.9880 O             1 RES     
    3402 O           34.2360    77.1980    10.1070 O             1 RES     
    3403 Si          28.9930    55.7800     3.1930 Si            1 RES     
    3404 O           16.7080    62.7920     9.7260 O             1 RES     
    3405 OS           8.3120    78.2320    12.0050 OS            1 RES     
    3406 Si          17.5100    75.8340    12.3960 Si            1 RES     
    3407 O           13.1120    95.4360     5.0930 O             1 RES     
    3408 O            8.6580    88.8890     7.8230 O             1 RES     
    3409 O           25.4570    80.2240     5.8030 O             1 RES     
    3410 OS          15.4610    80.9980    12.0200 OS            1 RES     
    3411 OS          20.9830    67.0100    12.4260 OS            1 RES     
    3412 O            2.5790    73.0990     5.9300 O             1 RES     
    3413 Si          23.6140    70.2550     7.2040 Si            1 RES     
    3414 O           12.8580    78.5260    10.3000 O             1 RES     
    3415 Si          49.4750    81.2930     5.8120 Si            1 RES     
    3416 OS          30.2560    57.0160    13.1400 OS            1 RES     
    3417 O            1.0510    92.4950     2.7780 O             1 RES     
    3418 O           47.2880    89.8280     7.4040 O             1 RES     
    3419 Si          18.5590    96.0310     6.8330 Si            1 RES     
    3420 Si          34.5940    62.1700     2.8700 Si            1 RES     
    3421 Si          22.8780    82.3050    10.6540 Si            1 RES     
    3422 O           40.5280    65.8970     7.9670 O             1 RES     
    3423 O           49.8640    71.4210    12.6100 O             1 RES     
    3424 Si          42.2390    53.0160     7.4680 Si            1 RES     
    3425 OS           3.7080    82.8340    13.4430 OS            1 RES     
    3426 O           49.6160    66.5430    11.2260 O             1 RES     
    3427 Si          27.6710    75.6370    12.2540 Si            1 RES     
    3428 O            9.4760    75.8230     3.2250 O             1 RES     
    3429 OS          16.1200    68.1080    12.2320 OS            1 RES     
    3430 Si           2.5000    86.8800     8.8330 Si            1 RES     
    3431 O           10.4580    69.5140    10.2270 O             1 RES     
    3432 O           31.5910    50.4320    11.3760 O             1 RES     
    3433 O            6.2520    53.0190     2.5250 O             1 RES     
    3434 O           23.7620    70.4510     5.6460 O             1 RES     
    3435 O            6.4440    78.1370     2.6900 O             1 RES     
    3436 Si          32.9600    66.8100     7.8490 Si            1 RES     
    3437 O           45.8420    62.2230     2.9200 O             1 RES     
    3438 Si          32.2490    84.8590     5.3880 Si            1 RES     
    3439 O           43.5730    69.3770     5.9410 O             1 RES     
    3440 O           41.4800    61.2340    10.4330 O             1 RES     
    3441 O           27.1300    69.9590    11.9050 O             1 RES     
    3442 O           43.1120    59.0960     2.1700 O             1 RES     
    3443 O           15.5340    75.4820     8.9350 O             1 RES     
    3444 O           28.6790    73.3450     2.1370 O             1 RES     
    3445 O           44.5210    67.3100     6.5560 O             1 RES     
    3446 O           13.6740    94.1950     7.0730 O             1 RES     
    3447 OS          14.3730    64.0060    12.1490 OS            1 RES     
    3448 O           15.2320    74.6720     6.5390 O             1 RES     
    3449 O           10.0290    55.5380     8.3100 O             1 RES     
    3450 Si          25.5300    72.6310     7.8570 Si            1 RES     
    3451 O            2.1790    97.9090     3.7720 O             1 RES     
    3452 Si          28.9950    73.7520     5.4270 Si            1 RES     
    3453 Si           3.1650    60.6790    10.1300 Si            1 RES     
    3454 O           16.2890    78.8230     5.1010 O             1 RES     
    3455 O           17.3520    82.1840     7.5460 O             1 RES     
    3456 O           34.8070    89.4040     4.0380 O             1 RES     
    3457 Si          36.5260    92.5080     5.6500 Si            1 RES     
    3458 O           19.9540    56.7290     6.2850 O             1 RES     
    3459 OS           4.6190    62.9200    13.5930 OS            1 RES     
    3460 O            2.3390    54.1420     7.6210 O             1 RES     
    3461 O           41.9660    80.8780     9.8350 O             1 RES     
    3462 Si          35.8660    99.2400     2.9200 Si            1 RES     
    3463 O            8.7220    68.7280     5.6150 O             1 RES     
    3464 OS          14.6250    53.0450    13.8430 OS            1 RES     
    3465 Si          35.9630    87.4350     6.4760 Si            1 RES     
    3466 Si           5.4570    65.2780     7.5350 Si            1 RES     
    3467 OS          27.9400    64.5790    12.6080 OS            1 RES     
    3468 Si          43.3240    91.8310     3.2860 Si            1 RES     
    3469 Si          43.4030    96.2690     6.1900 Si            1 RES     
    3470 Si          29.6460    61.3040     7.7860 Si            1 RES     
    3471 O           36.5260    64.3320    10.5830 O             1 RES     
    3472 O           36.0060    93.7990     6.4990 O             1 RES     
    3473 Si           8.0120    64.4310     6.0600 Si            1 RES     
    3474 O           38.2490    68.3300     8.8490 O             1 RES     
    3475 O           43.7310    69.8350     3.3930 O             1 RES     
    3476 O           27.6680    85.9060     3.0870 O             1 RES     
    3477 O            0.4900    93.5340    10.0180 O             1 RES     
    3478 O           13.6420    85.4190     6.9260 O             1 RES     
    3479 O           12.7540    61.4440     2.6230 O             1 RES     
    3480 Si          12.9910    77.1330    10.9580 Si            1 RES     
    3481 Si          23.8630    95.8620    11.9930 Si            1 RES     
    3482 O           22.2970    98.3590     5.3120 O             1 RES     
    3483 Si          25.9610    55.2320     7.8690 Si            1 RES     
    3484 O           24.2940    51.8930     2.7680 O             1 RES     
    3485 O           16.4760    87.7040     4.3180 O             1 RES     
    3486 O           38.9960    56.4630     3.1540 O             1 RES     
    3487 Si          10.7150    81.6810    12.0640 Si            1 RES     
    3488 O           34.5510    85.6090    12.8760 O             1 RES     
    3489 Si          40.2900    67.2020     6.6710 Si            1 RES     
    3490 O            0.1750    67.8730     2.5890 O             1 RES     
    3491 O           25.4540    66.6890     4.0590 O             1 RES     
    3492 O           21.2320    91.1290     3.7910 O             1 RES     
    3493 O           47.9910    70.1320     7.5240 O             1 RES     
    3494 O           28.9260    51.4310     7.6320 O             1 RES     
    3495 Si          24.1400    56.9550     9.6920 Si            1 RES     
    3496 Si          10.0460    95.8610    12.3140 Si            1 RES     
    3497 O           19.5920    96.6460     7.8140 O             1 RES     
    3498 O           49.2820    63.9790     6.4470 O             1 RES     
    3499 Si          32.7610    80.8370     8.0090 Si            1 RES     
    3500 OS          36.0280    69.1090    11.6440 OS            1 RES     
    3501 O           25.9280    86.2850     9.9660 O             1 RES     
    3502 O           16.9410    51.5030    13.9450 O             1 RES     
    3503 Si           8.0890    59.1650     3.4690 Si            1 RES     
    3504 O            7.4840    93.0870     8.6110 O             1 RES     
    3505 O            1.1320    77.7500     4.4110 O             1 RES     
    3506 Si          41.8280    98.1740     7.9800 Si            1 RES     
    3507 Si          38.2600    59.3290     6.6120 Si            1 RES     
    3508 O           40.4440    95.0910    11.7210 O             1 RES     
    3509 O           22.1720    78.9880    12.0870 O             1 RES     
    3510 O           22.5850    92.3680     5.5940 O             1 RES     
    3511 O            6.3640    50.9860    13.3560 O             1 RES     
    3512 O           21.1010    68.6210     4.3820 O             1 RES     
    3513 O           28.6020    75.5380    10.9880 O             1 RES     
    3514 Si          45.1290    66.0420     5.8950 Si            1 RES     
    3515 OS          48.0560    95.4530    12.2910 OS            1 RES     
    3516 O           14.1680    74.4350     1.8690 O             1 RES     
    3517 O           13.8490    63.9900     5.4690 O             1 RES     
    3518 Si          41.6930    72.5180     5.2840 Si            1 RES     
    3519 O            7.7250    60.1780     9.7690 O             1 RES     
    3520 O           15.1780    91.4640     6.7210 O             1 RES     
    3521 O            0.5540    74.3760     6.7230 O             1 RES     
    3522 Si          38.2510    89.6490    11.1770 Si            1 RES     
    3523 O           13.2470    54.9020     3.6700 O             1 RES     
    3524 O           37.0490    58.3670     5.3170 O             1 RES     
    3525 O           18.5340    59.5700     4.7320 O             1 RES     
    3526 O           28.1010    57.5450     8.9600 O             1 RES     
    3527 O            4.4450    99.1510     3.9220 O             1 RES     
    3528 Si          34.1500    50.2340     6.9910 Si            1 RES     
    3529 O           28.9690    50.5530     5.4100 O             1 RES     
    3530 O           25.2910    95.2430    11.4690 O             1 RES     
    3531 OS          48.5810    50.0460    12.8100 OS            1 RES     
    3532 O            9.1010    91.7060     7.7430 O             1 RES     
    3533 OS          48.7460    66.5420    13.5350 OS            1 RES     
    3534 O            2.8580    81.2520    11.5010 O             1 RES     
    3535 O           28.9490    82.9340     4.0500 O             1 RES     
    3536 Si          46.1820    63.6870    12.6920 Si            1 RES     
    3537 O           22.4060    77.0210     4.5720 O             1 RES     
    3538 O           32.4200    72.4380     3.8130 O             1 RES     
    3539 Si          19.3320    87.9810     7.2560 Si            1 RES     
    3540 OS          13.0730    83.9140    13.3170 OS            1 RES     
    3541 OS           1.1850    99.5760    12.8470 OS            1 RES     
    3542 Si          23.2730    86.9670    11.8210 Si            1 RES     
    3543 O           25.0460    87.2640     7.3890 O             1 RES     
    3544 O           14.9480    69.2350     6.0250 O             1 RES     
    3545 O           20.8760    80.5270     2.4170 O             1 RES     
    3546 Si          47.2880    98.5670     9.7450 Si            1 RES     
    3547 Si          39.1580    55.4970    12.3780 Si            1 RES     
    3548 O            6.1050    85.7080     4.4190 O             1 RES     
    3549 O           36.5980    52.3970    12.3880 O             1 RES     
    3550 Si          15.4760    70.6070     6.7620 Si            1 RES     
    3551 O           14.5900    83.3570    11.3350 O             1 RES     
    3552 Si          17.0470    50.9500    12.4370 Si            1 RES     
    3553 O            2.3170    57.2640     8.3850 O             1 RES     
    3554 O            9.0200    86.3940     7.3610 O             1 RES     
    3555 OS           0.4130    86.1710    11.9020 OS            1 RES     
    3556 O            7.3160    67.2230    10.7510 O             1 RES     
    3557 O           48.3180    99.4250     8.8890 O             1 RES     
    3558 Si          46.3050    57.2390    11.5810 Si            1 RES     
    3559 Si           0.9870    72.4530    12.7220 Si            1 RES     
    3560 O           12.6550    93.2920    11.9990 O             1 RES     
    3561 O           12.0960    59.1050     6.9030 O             1 RES     
    3562 Si          34.7290    69.2200    10.7460 Si            1 RES     
    3563 O            9.8690    86.6850     4.6570 O             1 RES     
    3564 O           41.9290    67.3280     6.3350 O             1 RES     
    3565 O            9.4350    96.6280     4.5100 O             1 RES     
    3566 O           40.4240    58.4670     2.8820 O             1 RES     
    3567 Si          26.2590    57.5200    11.9100 Si            1 RES     
    3568 O           32.8230    96.4750     9.3520 O             1 RES     
    3569 Si           6.6160    72.6860     3.5980 Si            1 RES     
    3570 O           27.6590    76.8770     8.9330 O             1 RES     
    3571 Si          15.6720    93.1520     3.8470 Si            1 RES     
    3572 O           44.8030    75.8370     6.1180 O             1 RES     
    3573 O           12.3800    50.3960     4.1410 O             1 RES     
    3574 O           39.3280   124.2340     3.1580 O             1 RES     
    3575 O            8.4580   148.5390     6.1960 O             1 RES     
    3576 O            9.9370   134.3450     9.7080 O             1 RES     
    3577 O           27.9310   120.9500     2.9650 O             1 RES     
    3578 Si          34.0510   121.9090     6.4800 Si            1 RES     
    3579 O           31.4160   117.1410     7.9150 O             1 RES     
    3580 O            7.4230   125.4710     6.7820 O             1 RES     
    3581 O           47.1120   103.1090     5.5400 O             1 RES     
    3582 O           32.8980   107.8050     9.9470 O             1 RES     
    3583 Si          38.7810   111.9610     4.5220 Si            1 RES     
    3584 O           28.2200   107.4620    11.4690 O             1 RES     
    3585 O           41.5420   122.2820     9.1930 O             1 RES     
    3586 O           31.7550   101.9730    13.4760 O             1 RES     
    3587 Si           1.2140   126.3900     3.6200 Si            1 RES     
    3588 O           32.1660   142.1050     9.0280 O             1 RES     
    3589 O           26.2930   146.3710     7.6460 O             1 RES     
    3590 O           17.5360   125.3840     7.5700 O             1 RES     
    3591 O           45.4190   133.1370    12.1080 O             1 RES     
    3592 Si          37.4340   104.1390     8.1680 Si            1 RES     
    3593 O           35.4360   132.8570     8.7280 O             1 RES     
    3594 O           23.7070   124.5910     4.9950 O             1 RES     
    3595 O            9.6650   131.9680     5.7910 O             1 RES     
    3596 Si          45.4860   122.8860    10.2000 Si            1 RES     
    3597 Si          19.9930   118.2280    12.3350 Si            1 RES     
    3598 O           24.5250   130.7410     7.9630 O             1 RES     
    3599 O           32.6640   141.9310    11.4990 O             1 RES     
    3600 O            6.5590   127.3500     5.0100 O             1 RES     
    3601 Si           8.9520   133.0600     4.9870 Si            1 RES     
    3602 O           40.1130   125.9410     9.7650 O             1 RES     
    3603 O           20.6210   137.5380     6.4480 O             1 RES     
    3604 Si          24.6920   129.4830     6.9840 Si            1 RES     
    3605 Si          19.3940   115.7420     5.6330 Si            1 RES     
    3606 O           29.8760   111.7970     6.2890 O             1 RES     
    3607 O           37.9360   130.6050     3.1040 O             1 RES     
    3608 O           49.3000   143.1650     4.7740 O             1 RES     
    3609 O           49.2410   115.4300     8.7790 O             1 RES     
    3610 Si          16.0040   125.6960     7.5250 Si            1 RES     
    3611 O           10.2360   103.4110     9.6970 O             1 RES     
    3612 O           43.4210   128.2730     6.3950 O             1 RES     
    3613 O            0.1870   140.6520     3.9740 O             1 RES     
    3614 O           11.9330   136.8760     3.0060 O             1 RES     
    3615 Si          43.8870   100.3740     7.3530 Si            1 RES     
    3616 O           23.3580   112.3080    11.7210 O             1 RES     
    3617 Si          25.3870   141.5760    12.4880 Si            1 RES     
    3618 O           46.0860   121.2950     7.0170 O             1 RES     
    3619 O           21.7340   106.6160     4.3500 O             1 RES     
    3620 O           23.6280   138.4180    11.4120 O             1 RES     
    3621 O           48.4240   130.3200     6.4430 O             1 RES     
    3622 O           14.8410   123.7240    11.1040 O             1 RES     
    3623 O           13.8720   107.7270     8.0010 O             1 RES     
    3624 O           42.9320   135.6550     5.0210 O             1 RES     
    3625 Si          14.9580   122.2990    11.7660 Si            1 RES     
    3626 Si           1.3660   123.9370     5.4410 Si            1 RES     
    3627 OS          17.8410   137.7820    13.0870 OS            1 RES     
    3628 O            2.1070   145.4170     9.4240 O             1 RES     
    3629 Si          23.7100   128.9220    12.3920 Si            1 RES     
    3630 O           38.9530   135.4330    11.0830 O             1 RES     
    3631 O           18.9750   137.1960     8.6150 O             1 RES     
    3632 O           20.4090   149.8920     4.6600 O             1 RES     
    3633 OS          45.0010   136.9310    13.7540 OS            1 RES     
    3634 O           46.3590   138.6730     9.4100 O             1 RES     
    3635 Si          30.3630   142.9570     3.6210 Si            1 RES     
    3636 O           22.5390   100.6400     1.6870 O             1 RES     
    3637 Si          47.8950   143.8810     5.0840 Si            1 RES     
    3638 O           21.7380   145.4450     8.6830 O             1 RES     
    3639 O           29.7260   134.7920    11.3840 O             1 RES     
    3640 O           28.0750   105.0820    10.5820 O             1 RES     
    3641 Si          24.9300   147.1050     7.6980 Si            1 RES     
    3642 O           49.2420   147.3080     4.1190 O             1 RES     
    3643 O           42.6700   139.8890    13.3630 O             1 RES     
    3644 O           30.4550   107.1310    10.0400 O             1 RES     
    3645 Si          23.1700   107.2460     4.4180 Si            1 RES     
    3646 O           22.6910   140.0080     9.8390 O             1 RES     
    3647 O            9.2430   134.4260     5.6130 O             1 RES     
    3648 Si          35.9510   145.0840     7.4200 Si            1 RES     
    3649 O           13.0020   114.6690    10.0680 O             1 RES     
    3650 Si          22.3030   118.2180     3.4300 Si            1 RES     
    3651 O           38.6920   144.6600     9.9650 O             1 RES     
    3652 Si           5.3750   136.6310     5.4460 Si            1 RES     
    3653 O           31.6610   106.9240     7.6810 O             1 RES     
    3654 OS           2.1040   144.4950    11.9170 OS            1 RES     
    3655 O           33.2710   137.6820     4.3090 O             1 RES     
    3656 O           34.7990   141.8550    10.2240 O             1 RES     
    3657 Si          20.4020   145.1770     4.5950 Si            1 RES     
    3658 Si          30.0820   117.9670     7.9450 Si            1 RES     
    3659 O           30.5780   143.3520     7.2540 O             1 RES     
    3660 O           19.3900   132.4830    10.8440 O             1 RES     
    3661 O           38.7970   147.0110    10.9690 O             1 RES     
    3662 Si          39.4990   119.3740     8.7080 Si            1 RES     
    3663 O           42.9490   138.5760     2.4350 O             1 RES     
    3664 Si           3.8240   129.5800     7.9930 Si            1 RES     
    3665 O           37.3440   108.4030     7.9400 O             1 RES     
    3666 O           15.1020   137.0500     8.0510 O             1 RES     
    3667 O            9.6790   103.5510     2.8980 O             1 RES     
    3668 O           31.5790   143.9430     3.5960 O             1 RES     
    3669 Si          35.8900   112.3490     5.6510 Si            1 RES     
    3670 O            4.2640   109.0260     4.7800 O             1 RES     
    3671 O           44.0270   115.3980     4.9560 O             1 RES     
    3672 OS          38.3090   133.0360    11.9640 OS            1 RES     
    3673 Si          32.8510   129.5180    12.2650 Si            1 RES     
    3674 O           22.9350   141.4540     7.9210 O             1 RES     
    3675 O           30.0370   149.7050     3.3810 O             1 RES     
    3676 Si           3.5000   138.7530     4.4320 Si            1 RES     
    3677 O           38.2010   110.6540     7.5920 O             1 RES     
    3678 O            9.7210   144.1600     8.4230 O             1 RES     
    3679 O           38.4650   125.9060     8.1340 O             1 RES     
    3680 O            6.0940   116.2190     8.6880 O             1 RES     
    3681 Si          15.1630   135.7140     7.3010 Si            1 RES     
    3682 O            7.6490   116.0520    13.1470 O             1 RES     
    3683 O           31.1850   107.8320     5.0870 O             1 RES     
    3684 O           24.1550   146.1000     8.5750 O             1 RES     
    3685 O            8.2810   106.0230    12.1260 O             1 RES     
    3686 O           45.3310   124.4320     9.8760 O             1 RES     
    3687 Si          25.6960   137.4590     8.8510 Si            1 RES     
    3688 OS           2.2070   113.1450    12.8520 OS            1 RES     
    3689 O           49.6470   115.8970     1.3740 O             1 RES     
    3690 Si          15.9380   132.7240     8.1010 Si            1 RES     
    3691 Si           7.5200   144.1720    12.3700 Si            1 RES     
    3692 O           30.4440   123.0700     5.2210 O             1 RES     
    3693 O           46.7050   147.7370     5.0130 O             1 RES     
    3694 O           11.4490   107.4630     8.7760 O             1 RES     
    3695 Si          23.7950   101.6760     6.8390 Si            1 RES     
    3696 O            2.8600   130.0720     9.2260 O             1 RES     
    3697 Si          21.9800   130.9280     3.3940 Si            1 RES     
    3698 O           24.3500   118.9630     7.6670 O             1 RES     
    3699 O            8.7010   116.3040     2.2870 O             1 RES     
    3700 Si          22.5320   125.0840     4.1390 Si            1 RES     
    3701 O            3.2820   109.1310    10.0050 O             1 RES     
    3702 Si          18.5560   133.6670    11.4620 Si            1 RES     
    3703 O           39.1110   121.6780     2.3750 O             1 RES     
    3704 O           17.6690   129.6720     7.1160 O             1 RES     
    3705 Si          20.2150   106.4960     4.7090 Si            1 RES     
    3706 Si          26.0590   140.8180     5.8490 Si            1 RES     
    3707 O           28.9650   138.7850    10.2090 O             1 RES     
    3708 Si          49.4280   100.5340     8.6050 Si            1 RES     
    3709 O            4.7720   121.7590     6.4550 O             1 RES     
    3710 O           24.2530   133.2980     7.8670 O             1 RES     
    3711 Si          10.7020   130.7490     6.1000 Si            1 RES     
    3712 O           42.6700   105.6730     5.2900 O             1 RES     
    3713 Si          14.2700   149.9640    11.6860 Si            1 RES     
    3714 O            6.6100   121.1300    10.0300 O             1 RES     
    3715 O           49.4510   111.8250    10.8060 O             1 RES     
    3716 O           41.1260   113.8420     9.8870 O             1 RES     
    3717 O           45.6810   115.0260     7.0230 O             1 RES     
    3718 O           46.7460   126.3010     8.8480 O             1 RES     
    3719 O           27.8520   130.1570     5.1630 O             1 RES     
    3720 O           14.0080   116.7380     5.3380 O             1 RES     
    3721 O           27.0560   141.8310     1.9940 O             1 RES     
    3722 Si          13.3490   124.6240     3.2190 Si            1 RES     
    3723 O           25.9020   134.8710     4.4290 O             1 RES     
    3724 O           20.1230   104.8830     4.5910 O             1 RES     
    3725 O           34.1470   115.1210    11.3000 O             1 RES     
    3726 Si           1.3730   122.1510     2.9220 Si            1 RES     
    3727 O           49.7900   125.9860     3.1710 O             1 RES     
    3728 O           32.2150   127.3290     8.7490 O             1 RES     
    3729 O           42.4190   113.5680     5.7240 O             1 RES     
    3730 O           37.2140   105.2770     9.2580 O             1 RES     
    3731 O           40.9980   123.4960     1.5910 O             1 RES     
    3732 OS           0.6460   127.9250    13.3760 OS            1 RES     
    3733 Si           0.8110   119.1590     9.6580 Si            1 RES     
    3734 O           30.5330   118.1760     4.0030 O             1 RES     
    3735 O           41.9850   133.4010     8.8860 O             1 RES     
    3736 OS           6.9590   138.8170    12.1150 OS            1 RES     
    3737 O           23.5630   128.8290     6.0310 O             1 RES     
    3738 Si          36.8960   106.1620    10.4730 Si            1 RES     
    3739 OS          30.9060   142.8970    12.8760 OS            1 RES     
    3740 O           22.3450   133.7720    10.4280 O             1 RES     
    3741 Si          38.7720   149.4470     3.8340 Si            1 RES     
    3742 Si          20.6320   128.6790    11.6590 Si            1 RES     
    3743 O           29.1060   109.9070     8.0490 O             1 RES     
    3744 O            4.3300   116.1090     6.8260 O             1 RES     
    3745 Si          46.1970   108.4660     8.6420 Si            1 RES     
    3746 O           31.4770   120.9200    10.3250 O             1 RES     
    3747 O           23.6740   113.7090     7.1970 O             1 RES     
    3748 O           25.7850   116.0530    11.2930 O             1 RES     
    3749 Si          25.0720   102.0650    11.2810 Si            1 RES     
    3750 O            6.5130   112.3630    10.0980 O             1 RES     
    3751 O           31.2430   126.1310     6.4910 O             1 RES     
    3752 O           29.5560   143.4330     4.9100 O             1 RES     
    3753 O            5.5290   129.6980     4.5780 O             1 RES     
    3754 Si          12.1290   129.9390     9.9840 Si            1 RES     
    3755 Si          42.9810   142.5610    10.5600 Si            1 RES     
    3756 O            0.0220   114.5270     4.1100 O             1 RES     
    3757 O           27.5270   106.1070     3.8020 O             1 RES     
    3758 OS          12.7250   103.7090    12.4850 OS            1 RES     
    3759 Si           9.4180   102.8310    10.8570 Si            1 RES     
    3760 O           31.6600   136.1520    10.5500 O             1 RES     
    3761 Si          18.5290   131.0570     7.4200 Si            1 RES     
    3762 OS          22.9530   145.1110    10.9490 OS            1 RES     
    3763 O           47.5310   128.1790     7.5710 O             1 RES     
    3764 O           22.0970   102.9560     3.5790 O             1 RES     
    3765 O           23.9750   147.1680     6.4300 O             1 RES     
    3766 Si          35.6350   107.7970     5.0950 Si            1 RES     
    3767 Si          15.2560   125.1420    10.4270 Si            1 RES     
    3768 O           18.6580   135.0890    10.6360 O             1 RES     
    3769 OS          20.2660   137.5690    13.8000 OS            1 RES     
    3770 O           29.7200   118.0810    12.3670 O             1 RES     
    3771 O           26.0000   119.8770     4.2940 O             1 RES     
    3772 O           41.0400   102.2550     8.1180 O             1 RES     
    3773 Si          26.5050   109.2230     5.5330 Si            1 RES     
    3774 O           36.9120   140.4130    10.7990 O             1 RES     
    3775 O           20.7340   115.2520     4.9050 O             1 RES     
    3776 O           19.4960   118.3400    10.8120 O             1 RES     
    3777 O           22.9330   102.9620     7.0930 O             1 RES     
    3778 OS          46.3160   148.9330    13.3120 OS            1 RES     
    3779 O           25.5590   123.5770     6.4960 O             1 RES     
    3780 O           34.9440   148.6380    11.0810 O             1 RES     
    3781 Si          25.5740   119.7440    11.9030 Si            1 RES     
    3782 O            0.6750   130.5180    10.5840 O             1 RES     
    3783 Si          19.9420   106.1710     7.7720 Si            1 RES     
    3784 Si          23.1990   112.0790     3.8050 Si            1 RES     
    3785 O           30.8380   105.4450     5.9680 O             1 RES     
    3786 O           45.9100   107.5290     7.3860 O             1 RES     
    3787 Si           3.6840   112.8230    12.3480 Si            1 RES     
    3788 OS          18.8100   144.6700    12.2700 OS            1 RES     
    3789 Si          38.0060   111.3040     9.0220 Si            1 RES     
    3790 O           20.9740   136.1480     4.3800 O             1 RES     
    3791 O           33.5230   145.4890     2.9160 O             1 RES     
    3792 O           23.1790   131.3580     2.5010 O             1 RES     
    3793 Si           9.2410   145.5480     3.3790 Si            1 RES     
    3794 Si          34.3650   105.5360    12.3320 Si            1 RES     
    3795 Si          39.6160   125.8090     3.1450 Si            1 RES     
    3796 O           28.8550   116.9830     8.2740 O             1 RES     
    3797 Si          10.8730   125.4460     9.4090 Si            1 RES     
    3798 OS           2.9380   127.3670    13.5110 OS            1 RES     
    3799 OS          33.3940   145.2420    13.7960 OS            1 RES     
    3800 Si          45.8650   131.8970     2.7980 Si            1 RES     
    3801 O           43.3990   105.4610    10.9030 O             1 RES     
    3802 O           45.3100   132.5620     6.9560 O             1 RES     
    3803 O           21.8170   145.9040     5.1190 O             1 RES     
    3804 O           42.0710   147.7170     9.4400 O             1 RES     
    3805 Si          35.4420   132.0520     7.3890 Si            1 RES     
    3806 O           45.1310   114.1860     9.3770 O             1 RES     
    3807 O           13.7230   101.3210    12.2550 O             1 RES     
    3808 O           28.4180   112.2310     8.3410 O             1 RES     
    3809 O           48.1150   103.6560     3.2300 O             1 RES     
    3810 O           24.3630   121.2010     2.9820 O             1 RES     
    3811 Si           0.4750   139.2730     4.6870 Si            1 RES     
    3812 Si          49.8290   117.2240    12.6160 Si            1 RES     
    3813 O           11.8830   142.9360     5.5030 O             1 RES     
    3814 O           48.1000   118.5900     5.2710 O             1 RES     
    3815 Si          13.5760   145.1310     8.3190 Si            1 RES     
    3816 O            7.9420   129.6150     8.5510 O             1 RES     
    3817 O           19.4490   116.2870     9.2650 O             1 RES     
    3818 O           21.8720   133.0660     6.7000 O             1 RES     
    3819 Si          28.1680   132.5160     7.8900 Si            1 RES     
    3820 O            9.3260   114.7530     6.8240 O             1 RES     
    3821 Si          33.4080   123.7200     8.8770 Si            1 RES     
    3822 O           22.0920   120.6210     7.5910 O             1 RES     
    3823 O            3.4620   106.4040    10.5250 O             1 RES     
    3824 Si          37.3120   124.5400    11.4470 Si            1 RES     
    3825 O           26.2140   125.8960    11.8030 O             1 RES     
    3826 Si          39.0690   117.2800     3.3630 Si            1 RES     
    3827 O           38.6180   134.2620     4.5350 O             1 RES     
    3828 Si          37.6040   134.2130     3.3530 Si            1 RES     
    3829 O            0.7970   142.5890     7.7990 O             1 RES     
    3830 O           22.2110   113.2820     3.8790 O             1 RES     
    3831 O            3.3010   142.0190     7.2270 O             1 RES     
    3832 O           42.6960   140.5310     3.8590 O             1 RES     
    3833 Si          17.0000   105.1450     8.0970 Si            1 RES     
    3834 O           47.1890   125.8760     6.4000 O             1 RES     
    3835 O           42.6210   118.3830    10.7470 O             1 RES     
    3836 O            8.0760   115.1190     4.6190 O             1 RES     
    3837 Si          45.0950   138.4250    10.3500 Si            1 RES     
    3838 O           45.8150   100.0320     1.4580 O             1 RES     
    3839 Si          12.9980   131.8610     7.7030 Si            1 RES     
    3840 O           18.4430   118.7220     8.4660 O             1 RES     
    3841 O           24.4370   116.7460     6.5860 O             1 RES     
    3842 Si          14.9540   112.9100     6.0530 Si            1 RES     
    3843 O           14.9650   118.7910     9.9840 O             1 RES     
    3844 Si          24.7280   126.1950    11.4530 Si            1 RES     
    3845 O           47.3630   132.9210     8.3330 O             1 RES     
    3846 O           32.0960   116.7640    11.4900 O             1 RES     
    3847 O           34.8860   147.1780    12.9650 O             1 RES     
    3848 O           12.7500   115.3170     3.5650 O             1 RES     
    3849 O           35.1600   141.7720     5.1760 O             1 RES     
    3850 O           46.3020   143.3040     9.1230 O             1 RES     
    3851 O           21.4630   114.5980     8.6160 O             1 RES     
    3852 O           38.8250   147.9060     3.5560 O             1 RES     
    3853 O           33.4650   101.9990     3.7860 O             1 RES     
    3854 O           27.3030   114.6550     8.4230 O             1 RES     
    3855 O           24.3010   127.5890    11.8080 O             1 RES     
    3856 O           18.4060   147.3430    11.6440 O             1 RES     
    3857 O            6.4100   119.6400     5.3440 O             1 RES     
    3858 Si          48.5780   119.7920     6.0330 Si            1 RES     
    3859 Si          13.2120   106.2720     4.4060 Si            1 RES     
    3860 Si          38.8670   143.7710     3.9090 Si            1 RES     
    3861 O           16.1730   135.9180     6.1790 O             1 RES     
    3862 Si          46.9800   102.9410     3.9820 Si            1 RES     
    3863 O           16.4210   148.9450     5.2640 O             1 RES     
    3864 Si          28.4320   100.9860     9.0180 Si            1 RES     
    3865 O            3.7910   119.2340    12.2220 O             1 RES     
    3866 Si          37.3810   114.3720     9.2660 Si            1 RES     
    3867 O           39.6090   117.1140     4.7570 O             1 RES     
    3868 O           18.9850   123.2030     4.9360 O             1 RES     
    3869 O           33.3830   129.5890     8.6530 O             1 RES     
    3870 Si           6.5040   134.3540     3.6440 Si            1 RES     
    3871 O           10.6390   141.7210    12.3230 O             1 RES     
    3872 Si          21.8010   123.4750    10.1490 Si            1 RES     
    3873 O           32.1880   102.9370    11.0530 O             1 RES     
    3874 O           48.2850   137.1040     8.2830 O             1 RES     
    3875 OS          41.0400   102.3510    12.7430 OS            1 RES     
    3876 O           21.6560   115.2860     2.4880 O             1 RES     
    3877 Si          23.6110   142.4730     6.8000 Si            1 RES     
    3878 Si          39.1900   124.7630     8.9630 Si            1 RES     
    3879 OS          23.5860   147.4960    12.0860 OS            1 RES     
    3880 OS          35.6550   144.6830    12.9390 OS            1 RES     
    3881 O           38.8090   110.5150     5.0240 O             1 RES     
    3882 Si           7.5450   117.4300    12.2700 Si            1 RES     
    3883 O           11.9280   110.0130     4.3980 O             1 RES     
    3884 O           47.4460   112.9720    12.0550 O             1 RES     
    3885 O           16.4350   101.3450     6.4240 O             1 RES     
    3886 Si          10.3130   111.8920    10.4020 Si            1 RES     
    3887 O           11.2070   132.3640    13.4470 O             1 RES     
    3888 O           23.7810   146.8420     3.9060 O             1 RES     
    3889 OS          32.3080   140.5490    13.5250 OS            1 RES     
    3890 Si          14.6130   139.8490    10.8620 Si            1 RES     
    3891 Si           9.0190   104.2510     4.0900 Si            1 RES     
    3892 O           25.1120   114.6520     5.4390 O             1 RES     
    3893 Si          44.0140   136.7140     7.7550 Si            1 RES     
    3894 OS          48.1550   110.7840    12.7930 OS            1 RES     
    3895 OS          14.5800   110.1050    13.9600 OS            1 RES     
    3896 OS          30.2540   115.4520    12.2440 OS            1 RES     
    3897 O           15.1430   139.4530     9.4470 O             1 RES     
    3898 Si          26.1430   103.1790     5.5820 Si            1 RES     
    3899 O            0.4530   103.1480     6.2690 O             1 RES     
    3900 O           46.8350   149.3910    10.9860 O             1 RES     
    3901 O            4.0590   136.5990     8.4880 O             1 RES     
    3902 Si          21.9700   114.8470     4.0010 Si            1 RES     
    3903 Si           5.4830   121.8870    10.9520 Si            1 RES     
    3904 O           12.9610   116.0130    12.0790 O             1 RES     
    3905 Si          18.5110   145.7810    11.1700 Si            1 RES     
    3906 OS          26.1120   106.5300    13.1560 OS            1 RES     
    3907 O           28.9550   111.6580     3.8450 O             1 RES     
    3908 O           16.8570   104.4800     9.5660 O             1 RES     
    3909 O           12.2070   131.3180     6.4880 O             1 RES     
    3910 Si           3.6610   147.9890     3.2660 Si            1 RES     
    3911 O            2.3810   138.3960     9.2630 O             1 RES     
    3912 O           16.4770   143.0330     5.4360 O             1 RES     
    3913 O            8.4010   137.8400     9.9930 O             1 RES     
    3914 Si          35.2360   126.0960     9.8200 Si            1 RES     
    3915 OS          41.6370   148.2940    12.0470 OS            1 RES     
    3916 O           28.3920   145.5220     9.3080 O             1 RES     
    3917 Si           8.7650   109.9060     8.6400 Si            1 RES     
    3918 Si          31.1860   140.2060     4.6190 Si            1 RES     
    3919 O           33.9620   109.7730    11.3540 O             1 RES     
    3920 Si          29.9290   138.9810    11.4220 Si            1 RES     
    3921 O           46.4470   145.4640     8.5700 O             1 RES     
    3922 O            3.8460   149.6770    12.4230 O             1 RES     
    3923 O           11.9350   126.3070    10.1220 O             1 RES     
    3924 O           34.7310   137.0780     7.2970 O             1 RES     
    3925 O            9.9940   132.7270     3.7510 O             1 RES     
    3926 OS          45.7050   112.9940    13.9360 OS            1 RES     
    3927 Si          18.4620   119.7870     7.3990 Si            1 RES     
    3928 O           11.2240   135.5340     6.4810 O             1 RES     
    3929 O           43.9110   110.6470     6.2750 O             1 RES     
    3930 O           45.5200   136.9650     7.4450 O             1 RES     
    3931 O           42.3600   147.1630     6.9220 O             1 RES     
    3932 Si          38.2540   143.6100     8.9210 Si            1 RES     
    3933 O            3.3950   111.3600    11.7150 O             1 RES     
    3934 Si           6.1610   104.5190     2.9570 Si            1 RES     
    3935 Si          35.9990   104.7990     5.4630 Si            1 RES     
    3936 O           40.4460   108.8940    11.2490 O             1 RES     
    3937 Si          36.3780   108.7640     9.1110 Si            1 RES     
    3938 Si           1.8180   127.6390    12.3530 Si            1 RES     
    3939 OS          47.8010   137.1470    12.8070 OS            1 RES     
    3940 O           48.1120   147.4380    10.4120 O             1 RES     
    3941 O           39.5130   120.8610     8.2070 O             1 RES     
    3942 O            7.0610   103.7190    13.2660 O             1 RES     
    3943 O           26.4280   134.1630    11.4740 O             1 RES     
    3944 Si          33.3770   103.5300     3.4640 Si            1 RES     
    3945 O           36.1180   148.2970     8.6890 O             1 RES     
    3946 O           46.7490   117.9500     3.0500 O             1 RES     
    3947 O           41.6860   142.9810     6.6740 O             1 RES     
    3948 O           37.4760   112.5040     5.3120 O             1 RES     
    3949 Si          24.7900   113.2300     6.2040 Si            1 RES     
    3950 O           38.1530   104.6200    13.3710 O             1 RES     
    3951 O            9.6770   132.6350    11.3050 O             1 RES     
    3952 Si          33.9690   122.8690     3.4780 Si            1 RES     
    3953 O           43.9820   137.9620     9.3120 O             1 RES     
    3954 Si          12.2740   134.9140     7.4100 Si            1 RES     
    3955 O           25.0010   118.4920    11.1670 O             1 RES     
    3956 O            2.7600   124.2130    10.4020 O             1 RES     
    3957 O           42.9580   126.1660    11.8200 O             1 RES     
    3958 O           45.1440   114.4450    11.7480 O             1 RES     
    3959 Si          40.0110   139.8830     8.6920 Si            1 RES     
    3960 OS           4.8870   130.6080    12.7110 OS            1 RES     
    3961 O           36.7400   129.8300     5.2550 O             1 RES     
    3962 Si          16.6150   144.7830     8.8650 Si            1 RES     
    3963 O           14.1100   111.8590     9.6930 O             1 RES     
    3964 O            2.0850   144.1560     6.4310 O             1 RES     
    3965 O           39.2760   149.2800    12.1610 O             1 RES     
    3966 Si          39.0470   145.4520    11.2560 Si            1 RES     
    3967 Si          46.1120   142.6170    10.5030 Si            1 RES     
    3968 Si          15.9470   102.3680     7.5480 Si            1 RES     
    3969 O            9.2800   123.5000     7.5290 O             1 RES     
    3970 OS          40.7000   134.4120    12.2590 OS            1 RES     
    3971 OS          37.3970   149.2820    10.3440 OS            1 RES     
    3972 O           27.2990   109.9210     4.3170 O             1 RES     
    3973 O           47.5000   117.2100     9.6140 O             1 RES     
    3974 O           10.7770   140.0520     8.7900 O             1 RES     
    3975 Si          24.9320   124.8970     5.9010 Si            1 RES     
    3976 Si          46.2280   136.8130    12.7060 Si            1 RES     
    3977 OS          17.5710   107.1020    13.6460 OS            1 RES     
    3978 O            3.9580   131.7320     3.9260 O             1 RES     
    3979 O           30.0340   148.1820     5.4990 O             1 RES     
    3980 Si           2.3960   100.3410    12.1610 Si            1 RES     
    3981 Si           1.3740   124.8670    10.7920 Si            1 RES     
    3982 O           32.8560   114.0160     5.4360 O             1 RES     
    3983 O            5.0360   132.8140    11.2680 O             1 RES     
    3984 O            4.3950   101.0660     5.6080 O             1 RES     
    3985 Si          11.4700   114.6680     9.6650 Si            1 RES     
    3986 O           45.4260   112.4360     7.7160 O             1 RES     
    3987 Si          39.5160   133.9090    11.3150 Si            1 RES     
    3988 O           42.7260   145.9040    11.9400 O             1 RES     
    3989 OS          21.7830   105.7500    13.3060 OS            1 RES     
    3990 O            3.4140   140.7410     9.3500 O             1 RES     
    3991 O           34.3490   132.3610     3.7950 O             1 RES     
    3992 OS           4.0670   145.7170    13.0380 OS            1 RES     
    3993 O           16.5320   125.6030    11.2150 O             1 RES     
    3994 O            8.3430   140.2150     9.8420 O             1 RES     
    3995 O            4.0360   125.3720     8.7120 O             1 RES     
    3996 O           30.6800   145.8030     9.3590 O             1 RES     
    3997 O           10.0900   110.7120     6.1550 O             1 RES     
    3998 O           19.1940   117.1920     5.2050 O             1 RES     
    3999 O           37.1160   148.2080    12.3700 O             1 RES     
    4000 Si          11.3670   116.3290    12.1810 Si            1 RES     
    4001 O           35.5170   149.9290     1.5800 O             1 RES     
    4002 O            3.1960   113.4610     3.7560 O             1 RES     
    4003 O            4.0060   130.3250     6.5690 O             1 RES     
    4004 O           39.3020   100.3220     2.5230 O             1 RES     
    4005 Si          39.5480   134.3190     5.9030 Si            1 RES     
    4006 Si          19.5940   118.6870     4.7920 Si            1 RES     
    4007 OS          15.5400   111.8900    12.5810 OS            1 RES     
    4008 Si           3.2760   122.0430     6.8940 Si            1 RES     
    4009 Si          16.4430   103.1290    10.4140 Si            1 RES     
    4010 O           34.7450   120.4650     6.8190 O             1 RES     
    4011 O           42.7410   149.4860     7.9210 O             1 RES     
    4012 O            9.6600   125.8890     8.2980 O             1 RES     
    4013 Si          14.1900   140.4600     5.9330 Si            1 RES     
    4014 O            2.1890   107.9920     5.7940 O             1 RES     
    4015 O           16.4940   121.9160    12.0070 O             1 RES     
    4016 O            9.6740   103.0890     7.3500 O             1 RES     
    4017 Si          45.4850   102.3080     9.1260 Si            1 RES     
    4018 O           34.5530   101.7420     7.1130 O             1 RES     
    4019 Si          47.6950   146.8240     4.1620 Si            1 RES     
    4020 O            9.0940   131.8780     9.0570 O             1 RES     
    4021 O           32.8540   111.6640    10.2560 O             1 RES     
    4022 O           39.9370   112.6720     5.1830 O             1 RES     
    4023 O           42.7870   107.5880     3.9020 O             1 RES     
    4024 OS          41.5110   144.6970    13.8950 OS            1 RES     
    4025 Si           3.5110   126.4870     7.6910 Si            1 RES     
    4026 O           24.8100   140.6180     2.1530 O             1 RES     
    4027 O           28.0830   119.4000    14.1250 O             1 RES     
    4028 Si          45.3360   148.4560     5.2530 Si            1 RES     
    4029 O           15.0890   116.2570    10.7830 O             1 RES     
    4030 O            1.7470   125.2300     4.6450 O             1 RES     
    4031 O           20.2430   149.6870    11.9420 O             1 RES     
    4032 Si           1.9550   142.6290     6.7790 Si            1 RES     
    4033 Si          21.5380   103.5220     7.4470 Si            1 RES     
    4034 O           17.2980   145.0130    10.2930 O             1 RES     
    4035 O           14.1450   139.2150     6.8920 O             1 RES     
    4036 O           10.4990   119.3050     7.6740 O             1 RES     
    4037 Si          14.9070   107.2060     6.9330 Si            1 RES     
    4038 Si          28.6810   125.7310     9.3460 Si            1 RES     
    4039 O           35.3300   130.3750     2.9760 O             1 RES     
    4040 Si           8.6830   143.2050     7.6990 Si            1 RES     
    4041 O           14.0870   129.7210     3.3030 O             1 RES     
    4042 O           33.0820   122.8120    10.2330 O             1 RES     
    4043 O           47.5190   136.2220     3.8790 O             1 RES     
    4044 Si          28.5250   106.5820    10.1990 Si            1 RES     
    4045 Si          47.4500   117.4220     4.3660 Si            1 RES     
    4046 O           28.1610   115.8470     6.3670 O             1 RES     
    4047 OS           1.1650   122.8170    14.2730 OS            1 RES     
    4048 O           44.8110   100.9100     8.5730 O             1 RES     
    4049 O           18.5750   127.3960     6.6910 O             1 RES     
    4050 O           26.1090   103.3020     3.9990 O             1 RES     
    4051 Si          42.6060   134.7230     9.4340 Si            1 RES     
    4052 Si          45.3720   110.9610     7.0310 Si            1 RES     
    4053 O           22.5860   129.5690     3.9380 O             1 RES     
    4054 O           46.9910   108.4630    12.3190 O             1 RES     
    4055 Si          40.2970   131.3540     6.4800 Si            1 RES     
    4056 Si           6.0960   133.9830    10.8440 Si            1 RES     
    4057 O           12.7440   130.9830     8.8940 O             1 RES     
    4058 O           46.1210   101.2430    12.8700 O             1 RES     
    4059 O           26.2930   130.5420     3.2220 O             1 RES     
    4060 O            7.8820   124.5560     9.3200 O             1 RES     
    4061 O           27.0360   122.2950     8.3600 O             1 RES     
    4062 O           25.2950   100.7040    10.3780 O             1 RES     
    4063 Si          24.9280   117.5040     7.8380 Si            1 RES     
    4064 O           48.6180   104.1440    10.7340 O             1 RES     
    4065 O           25.6520   128.5460     7.8160 O             1 RES     
    4066 O           19.8470   124.9840     6.4890 O             1 RES     
    4067 Si          41.6370   112.8030    10.9200 Si            1 RES     
    4068 Si          35.3520   101.3890    12.1150 Si            1 RES     
    4069 Si          46.8970   137.7350     7.7620 Si            1 RES     
    4070 O           26.2440   107.4510     2.2640 O             1 RES     
    4071 O            5.3780   135.8640     6.8210 O             1 RES     
    4072 O           45.1740   127.8150     2.8680 O             1 RES     
    4073 Si          43.8770   127.3760    11.5510 Si            1 RES     
    4074 Si          12.5270   108.5340     8.2720 Si            1 RES     
    4075 O            3.5620   128.0480     7.7900 O             1 RES     
    4076 O            5.2150   122.8920     2.7460 O             1 RES     
    4077 O           46.5290   122.0670     9.2400 O             1 RES     
    4078 Si          13.1480   115.3560     5.0550 Si            1 RES     
    4079 O           24.9450   129.7810    11.9010 O             1 RES     
    4080 O            0.0590   117.7840     9.3110 O             1 RES     
    4081 O           19.1170   113.8090     9.2550 O             1 RES     
    4082 O            4.0670   137.3420     4.9070 O             1 RES     
    4083 O           36.9140   110.2500     9.4460 O             1 RES     
    4084 O           35.5640   106.3480     5.5660 O             1 RES     
    4085 OS          29.1860   138.1350    12.6570 OS            1 RES     
    4086 Si          31.8730   137.3300     3.6020 Si            1 RES     
    4087 O           42.7740   103.8650     8.6890 O             1 RES     
    4088 O           49.9610   133.5230     2.2830 O             1 RES     
    4089 O           36.2550   126.7060     8.7730 O             1 RES     
    4090 Si          14.0130   115.1700    11.1740 Si            1 RES     
    4091 OS           3.7870   116.7630    12.8830 OS            1 RES     
    4092 Si          48.5450   105.0490    12.0960 Si            1 RES     
    4093 O           40.6880   122.2130     4.0540 O             1 RES     
    4094 O           14.5790   132.1970     7.4600 O             1 RES     
    4095 O           40.8770   138.5600     8.8240 O             1 RES     
    4096 O           24.8340   143.0310     2.6420 O             1 RES     
    4097 Si          30.0510   119.2360     5.0320 Si            1 RES     
    4098 O           32.2550   108.4950     2.8570 O             1 RES     
    4099 O           45.1300   132.9420     1.8010 O             1 RES     
    4100 O           23.0200   132.1490    12.2200 O             1 RES     
    4101 Si           6.2410   143.4290     9.5200 Si            1 RES     
    4102 Si          26.1320   127.2990     4.2450 Si            1 RES     
    4103 O           39.7030   143.2250     8.3650 O             1 RES     
    4104 O            8.5980   146.3720     2.2240 O             1 RES     
    4105 Si          34.6490   103.1510     7.7220 Si            1 RES     
    4106 O           15.1550   111.3100     5.9300 O             1 RES     
    4107 Si           5.3720   110.0700     4.4590 Si            1 RES     
    4108 O           42.3490   107.4910    12.1660 O             1 RES     
    4109 O           15.4210   140.4660    12.0290 O             1 RES     
    4110 O            5.0060   104.4480     4.0530 O             1 RES     
    4111 O           19.4280   145.2850     5.8050 O             1 RES     
    4112 O           44.4440   146.5930    10.0370 O             1 RES     
    4113 O           49.3310   132.3570     9.5320 O             1 RES     
    4114 O           30.1120   126.0840     8.9200 O             1 RES     
    4115 O           10.4160   101.0990     2.8170 O             1 RES     
    4116 O            5.6430   134.8800     9.6260 O             1 RES     
    4117 O           10.6130   129.6900     9.5080 O             1 RES     
    4118 O           38.9430   130.5190     6.3560 O             1 RES     
    4119 O           10.5100   108.1880     5.4640 O             1 RES     
    4120 O           18.0080   149.7870    12.4920 O             1 RES     
    4121 O           29.9750   118.5390     6.4630 O             1 RES     
    4122 Si          43.5010   106.3350    12.2980 Si            1 RES     
    4123 O           31.0460   133.8030     5.5130 O             1 RES     
    4124 O            8.9270   111.8520    11.1040 O             1 RES     
    4125 O           22.6540   100.6510     6.3860 O             1 RES     
    4126 O           45.1230   132.2190     9.7350 O             1 RES     
    4127 O           15.4250   108.6330     6.4840 O             1 RES     
    4128 O           24.3040   133.2740     3.2250 O             1 RES     
    4129 O           49.8890   113.0660     8.7600 O             1 RES     
    4130 Si           8.1590   111.0630     5.8820 Si            1 RES     
    4131 Si           9.7230   106.6800    12.0750 Si            1 RES     
    4132 Si          28.4790   108.4120     7.7260 Si            1 RES     
    4133 Si           0.5120   107.5370    12.0020 Si            1 RES     
    4134 O            9.6710   105.6550     4.5980 O             1 RES     
    4135 O            0.6430   146.6160     2.2410 O             1 RES     
    4136 O           47.4550   113.8010     8.3070 O             1 RES     
    4137 O           18.8750   125.6890    11.5620 O             1 RES     
    4138 Si           9.6420   129.2860     3.6580 Si            1 RES     
    4139 O            6.7420   127.7270     7.4510 O             1 RES     
    4140 Si           7.3690   111.2960    10.8940 Si            1 RES     
    4141 Si          30.6730   132.5360     9.5370 Si            1 RES     
    4142 O           12.3410   133.3180     7.6750 O             1 RES     
    4143 Si           5.5320   136.0130     8.4250 Si            1 RES     
    4144 Si          23.0290   143.0570    11.1760 Si            1 RES     
    4145 Si          40.9590   108.1710     7.5530 Si            1 RES     
    4146 OS          19.6480   148.2890    13.7740 OS            1 RES     
    4147 O           34.4150   122.6970     5.0520 O             1 RES     
    4148 O           21.5930   103.0260     9.0560 O             1 RES     
    4149 Si          35.2580   114.0110    11.5060 Si            1 RES     
    4150 O           15.8700   132.0780     9.6110 O             1 RES     
    4151 O           27.1660   118.1990     2.9840 O             1 RES     
    4152 O            2.9420   129.6550     4.5650 O             1 RES     
    4153 Si          41.6730   143.7280     5.2710 Si            1 RES     
    4154 O           39.1920   100.5770     7.9150 O             1 RES     
    4155 O           12.7510   119.8360     9.1320 O             1 RES     
    4156 O           21.9460   142.2760    10.3200 O             1 RES     
    4157 O           14.1980   138.2730     2.9000 O             1 RES     
    4158 O           29.3360   132.1020     8.8840 O             1 RES     
    4159 O           49.7930   110.4860     8.6050 O             1 RES     
    4160 O           26.2920   112.6820     9.6340 O             1 RES     
    4161 O            9.8200   125.0990    10.5220 O             1 RES     
    4162 Si          27.4390   119.6000     3.5680 Si            1 RES     
    4163 O            6.6230   114.8530     6.6910 O             1 RES     
    4164 O            8.6230   149.0540    10.4420 O             1 RES     
    4165 O           44.8180   126.8060    10.4470 O             1 RES     
    4166 O           11.7380   109.5000     1.6330 O             1 RES     
    4167 O           47.2400   146.8150     2.7000 O             1 RES     
    4168 O           34.5170   124.8560     9.2050 O             1 RES     
    4169 O           20.2360   109.1000    10.6340 O             1 RES     
    4170 Si          25.7150   141.7100     2.8710 Si            1 RES     
    4171 O           34.9960   119.4610     9.2060 O             1 RES     
    4172 Si          41.4990   119.5180    11.1150 Si            1 RES     
    4173 Si          15.2730   110.2900    12.5260 Si            1 RES     
    4174 O           36.2120   118.2560     7.4380 O             1 RES     
    4175 O           29.3970   136.5730     9.2700 O             1 RES     
    4176 O            5.0300   123.2810    10.2570 O             1 RES     
    4177 Si           0.3920   142.2210     4.1890 Si            1 RES     
    4178 O           49.4230   118.8260    12.6940 O             1 RES     
    4179 O           27.1160   127.9850     5.1480 O             1 RES     
    4180 Si           8.2650   140.9430     4.4180 Si            1 RES     
    4181 O           41.1300   122.0980     6.6650 O             1 RES     
    4182 O           45.5570   131.9600     4.3400 O             1 RES     
    4183 O            0.1660   119.6860     6.1490 O             1 RES     
    4184 Si          33.2720   108.2920    11.3850 Si            1 RES     
    4185 O           22.7000   100.6170     4.0170 O             1 RES     
    4186 O           13.0960   147.7250     5.9260 O             1 RES     
    4187 Si          22.7790   101.7000     2.8520 Si            1 RES     
    4188 O           16.3630   113.3470     5.6630 O             1 RES     
    4189 O           30.9870   148.2450    10.0420 O             1 RES     
    4190 O           37.2390   149.7590     3.5030 O             1 RES     
    4191 Si          30.8900   116.7310     3.3720 Si            1 RES     
    4192 O           26.4990   144.3450     9.2110 O             1 RES     
    4193 O           49.2220   126.2600     7.9750 O             1 RES     
    4194 O           33.9070   131.6450     7.3760 O             1 RES     
    4195 O           43.4510   115.8270    10.1300 O             1 RES     
    4196 Si          46.0430   125.0580     5.6030 Si            1 RES     
    4197 O            1.8810   126.1950     7.7000 O             1 RES     
    4198 O           17.3560   102.2180    11.3970 O             1 RES     
    4199 O            7.1550   117.3080     4.0380 O             1 RES     
    4200 Si          42.4350   110.2010     5.9260 Si            1 RES     
    4201 Si          40.6900   103.0210    11.3890 Si            1 RES     
    4202 O           19.9280   129.8800    10.9250 O             1 RES     
    4203 O           19.4570   120.9430     7.8900 O             1 RES     
    4204 O           10.7040   113.2600     9.7220 O             1 RES     
    4205 Si           0.4770   101.6020     5.9420 Si            1 RES     
    4206 O            9.4100   101.3120    10.7100 O             1 RES     
    4207 Si          18.7360   117.6360     9.5480 Si            1 RES     
    4208 O            5.7520   147.8330    12.9800 O             1 RES     
    4209 O           19.8340   107.1440     8.9810 O             1 RES     
    4210 Si          18.1230   108.5540     3.6600 Si            1 RES     
    4211 Si           8.9940   133.1040    10.0430 Si            1 RES     
    4212 O           35.6350   137.2760     4.9160 O             1 RES     
    4213 O           43.9320   130.7370     6.0400 O             1 RES     
    4214 Si          10.3410   136.8300     3.1460 Si            1 RES     
    4215 O           30.0060   134.1070    13.8750 O             1 RES     
    4216 OS          33.7480   133.1240    13.3250 OS            1 RES     
    4217 Si           7.3310   143.7630     4.9050 Si            1 RES     
    4218 O           12.4480   123.4040     3.5910 O             1 RES     
    4219 O           46.8580   141.0190     2.4920 O             1 RES     
    4220 Si          11.1820   120.0760     8.8680 Si            1 RES     
    4221 Si          26.8970   132.7770    12.0530 Si            1 RES     
    4222 O           31.1770   138.7570     3.8720 O             1 RES     
    4223 O           42.7610   136.9040     6.8720 O             1 RES     
    4224 O            0.1790   145.8030    11.0080 O             1 RES     
    4225 O           14.9690   139.8680     4.7060 O             1 RES     
    4226 O            9.7750   130.5060     2.5650 O             1 RES     
    4227 Si          26.2080   135.7160    11.4330 Si            1 RES     
    4228 O           33.8200   101.8110    12.2470 O             1 RES     
    4229 O           32.2410   124.6310     8.4590 O             1 RES     
    4230 O           44.9250   106.9980    12.2900 O             1 RES     
    4231 Si          10.0470   106.9750     9.0140 Si            1 RES     
    4232 O            4.9290   113.9990     8.3470 O             1 RES     
    4233 Si          23.0970   134.0080     6.9800 Si            1 RES     
    4234 O           35.3680   149.2480     6.6070 O             1 RES     
    4235 O           38.6330   103.1870     8.2330 O             1 RES     
    4236 O            9.6790   138.1050     2.4130 O             1 RES     
    4237 O           24.3640   125.9410     9.8980 O             1 RES     
    4238 Si           1.3860   104.4330     6.3760 Si            1 RES     
    4239 O           36.0720   125.4030    10.9870 O             1 RES     
    4240 Si          33.3970   100.4560     4.1020 Si            1 RES     
    4241 O           47.7770   145.4010     4.5940 O             1 RES     
    4242 O           49.6460   100.9140     7.0600 O             1 RES     
    4243 Si          49.7490   142.7510     8.8430 Si            1 RES     
    4244 O           21.0710   105.0660     7.7670 O             1 RES     
    4245 Si          17.6200   108.2770    12.5210 Si            1 RES     
    4246 O           23.8990   108.0890     8.4830 O             1 RES     
    4247 O           44.9940   106.8110     5.0230 O             1 RES     
    4248 O           38.3840   127.7090     9.6910 O             1 RES     
    4249 Si           2.3000   149.5910     9.1770 Si            1 RES     
    4250 O           11.0760   117.9080    12.0650 O             1 RES     
    4251 Si           2.4870   145.5200     5.7490 Si            1 RES     
    4252 O            5.1070   113.1130     2.0220 O             1 RES     
    4253 O           17.3130   117.3870    10.0950 O             1 RES     
    4254 O           38.8030   118.8680     3.1010 O             1 RES     
    4255 O            6.2230   105.3790     1.6200 O             1 RES     
    4256 O           33.8930   137.3990    11.2720 O             1 RES     
    4257 OS          35.5880   137.9490    13.8270 OS            1 RES     
    4258 O            5.7350   122.1460    12.4840 O             1 RES     
    4259 Si          30.0550   120.4620     9.8690 Si            1 RES     
    4260 O            6.6910   121.9270     4.9560 O             1 RES     
    4261 O           17.7340   121.6430     3.5230 O             1 RES     
    4262 O           19.7000   145.8050    10.1940 O             1 RES     
    4263 O           21.0350   110.2870     8.9720 O             1 RES     
    4264 Si           0.3040   111.6260     9.5100 Si            1 RES     
    4265 Si          47.8920   139.8850     5.9730 Si            1 RES     
    4266 Si          25.8660   144.0270    10.5700 Si            1 RES     
    4267 O            3.1940   100.0020     7.9500 O             1 RES     
    4268 O           33.6470   134.4260     4.8550 O             1 RES     
    4269 Si          30.7270   142.4020     8.4770 Si            1 RES     
    4270 Si          34.7700   137.8690     3.8180 Si            1 RES     
    4271 O           29.2810   120.1280    11.1720 O             1 RES     
    4272 O           15.4150   107.7660     1.5950 O             1 RES     
    4273 O           18.3850   135.8390     4.7270 O             1 RES     
    4274 Si          45.2900   125.8680     9.3100 Si            1 RES     
    4275 Si          42.5050   122.3130    10.4510 Si            1 RES     
    4276 Si          15.7320   129.5360     3.7050 Si            1 RES     
    4277 Si           9.6690   147.8430     5.4930 Si            1 RES     
    4278 O           12.3740   148.9220     8.1810 O             1 RES     
    4279 O           24.6360   100.9360     7.9300 O             1 RES     
    4280 O           19.8080   103.0050     3.2320 O             1 RES     
    4281 O           35.4430   100.0010    12.9260 O             1 RES     
    4282 O            6.8130   127.9240     9.9120 O             1 RES     
    4283 O           36.6000   138.8690     6.7020 O             1 RES     
    4284 Si          10.1060   119.0830    11.7060 Si            1 RES     
    4285 O           19.5560   115.3870     7.1320 O             1 RES     
    4286 O           13.4780   147.4240     3.3610 O             1 RES     
    4287 OS          33.1620   111.7520    13.1050 OS            1 RES     
    4288 O           10.6930   126.6800     1.2410 O             1 RES     
    4289 O           22.8730   122.8310    11.1670 O             1 RES     
    4290 O           11.8470   121.1590     4.2940 O             1 RES     
    4291 Si          21.9760   112.3940    12.3550 Si            1 RES     
    4292 O           12.8560   109.6200     9.3420 O             1 RES     
    4293 Si          15.5080   138.7700     3.6850 Si            1 RES     
    4294 O           37.2780   142.6790     9.7680 O             1 RES     
    4295 O            8.5470   110.3990     4.4330 O             1 RES     
    4296 O            4.3780   146.6300     8.9120 O             1 RES     
    4297 O           29.9050   145.6210     6.1860 O             1 RES     
    4298 Si          33.6080   114.0500     6.7690 Si            1 RES     
    4299 O            6.9040   114.7780     2.4800 O             1 RES     
    4300 O           17.7290   146.9900     5.8550 O             1 RES     
    4301 O           13.0630   102.0570     5.8520 O             1 RES     
    4302 O           14.9550   120.6690     8.2220 O             1 RES     
    4303 O           26.1070   141.4050     4.3750 O             1 RES     
    4304 O           26.7350   126.8440     2.9100 O             1 RES     
    4305 O           30.0560   102.9350     5.7890 O             1 RES     
    4306 O           45.2980   121.2120     4.8160 O             1 RES     
    4307 O            9.9770   110.8910     9.1250 O             1 RES     
    4308 Si          15.7720   132.3240    11.1840 Si            1 RES     
    4309 O           25.9570   132.4380     4.9530 O             1 RES     
    4310 O           49.6260   138.0500     4.0950 O             1 RES     
    4311 Si          27.7560   122.5190     3.0090 Si            1 RES     
    4312 O            6.1310   118.0340    12.6980 O             1 RES     
    4313 Si          29.6580   112.5070     4.9570 Si            1 RES     
    4314 Si          20.6900   103.4160     4.4270 Si            1 RES     
    4315 O           18.0140   137.6140     6.4480 O             1 RES     
    4316 Si           7.4400   149.6480     6.7860 Si            1 RES     
    4317 O           11.4600   142.1930     3.2080 O             1 RES     
    4318 O            7.4840   142.2850     4.2520 O             1 RES     
    4319 O           20.4090   141.3470     8.5420 O             1 RES     
    4320 O           27.7690   115.8050     3.7780 O             1 RES     
    4321 O           20.8050   122.5490     6.6200 O             1 RES     
    4322 O           47.1940   109.1690     3.9050 O             1 RES     
    4323 OS          43.1990   132.2580    11.8910 OS            1 RES     
    4324 OS           2.5250   101.7930    12.7490 OS            1 RES     
    4325 O           15.8720   131.1240     3.5680 O             1 RES     
    4326 O           36.9670   123.0980    12.0190 O             1 RES     
    4327 O           24.6860   105.7720     8.6550 O             1 RES     
    4328 Si           3.3320   117.0320     2.8190 Si            1 RES     
    4329 O           46.1960   119.5610     9.2260 O             1 RES     
    4330 O            4.2990   111.6510     9.3740 O             1 RES     
    4331 Si          43.9040   120.4480     4.8120 Si            1 RES     
    4332 O           24.8680   135.8760    12.2940 O             1 RES     
    4333 O           23.6580   118.9010     3.6840 O             1 RES     
    4334 Si          14.1220   137.2970    12.4430 Si            1 RES     
    4335 Si          48.3240   103.2150     9.4960 Si            1 RES     
    4336 O            8.7600   145.0380    12.2370 O             1 RES     
    4337 Si          35.3480   134.2110     9.5120 Si            1 RES     
    4338 Si          47.0210   100.0510    12.4420 Si            1 RES     
    4339 O           19.9310   133.8980     5.2210 O             1 RES     
    4340 O            7.6010   134.5360     2.5650 O             1 RES     
    4341 O           41.9330   137.9030     4.7360 O             1 RES     
    4342 Si           6.2890   117.4690     9.5750 Si            1 RES     
    4343 O           25.4360   111.1810    11.7760 O             1 RES     
    4344 O           10.2860   101.4390     5.2360 O             1 RES     
    4345 O           23.4720   143.8750     7.4750 O             1 RES     
    4346 O            6.0160   144.9060     9.1190 O             1 RES     
    4347 Si          12.5860   109.9290     3.0050 Si            1 RES     
    4348 O            2.3750   115.4810     5.2860 O             1 RES     
    4349 Si           5.0570   113.0090     9.6470 Si            1 RES     
    4350 O           18.5420   105.3050     7.9260 O             1 RES     
    4351 O           48.6410   143.7890     8.4790 O             1 RES     
    4352 O           11.8310   130.9040    11.1600 O             1 RES     
    4353 O           35.0670   113.4710     6.3520 O             1 RES     
    4354 Si          42.0050   138.9920     3.5840 Si            1 RES     
    4355 O            8.0640   140.0100     3.0870 O             1 RES     
    4356 Si          28.7100   137.9400     8.8920 Si            1 RES     
    4357 Si           1.4570   107.3840     7.0950 Si            1 RES     
    4358 O           19.5950   131.6930     6.4870 O             1 RES     
    4359 Si          20.2910   110.6330    10.3250 Si            1 RES     
    4360 O           49.4830   109.5720     4.3120 O             1 RES     
    4361 Si          49.2360   130.9390    10.2300 Si            1 RES     
    4362 O           29.8460   141.2250     8.0550 O             1 RES     
    4363 Si          19.0220   125.9820     7.4110 Si            1 RES     
    4364 O           23.4690   113.3370     9.5400 O             1 RES     
    4365 Si          23.9240   124.9980     8.7160 Si            1 RES     
    4366 OS          33.2710   137.9530    13.2690 OS            1 RES     
    4367 O           22.4530   121.1830    13.0020 O             1 RES     
    4368 O           25.8540   125.8150     5.0220 O             1 RES     
    4369 O           40.4720   131.4740     8.0220 O             1 RES     
    4370 Si          49.0790   109.2880     7.9830 Si            1 RES     
    4371 OS           6.2560   106.2770    13.5190 OS            1 RES     
    4372 Si          34.2060   140.7980     4.4520 Si            1 RES     
    4373 O           38.6100   137.7160     3.1690 O             1 RES     
    4374 Si           7.0770   120.2490     8.8390 Si            1 RES     
    4375 Si          48.9090   146.5840    11.4290 Si            1 RES     
    4376 O           38.3370   126.5730     2.7100 O             1 RES     
    4377 Si          34.5520   109.9310     7.0270 Si            1 RES     
    4378 Si          20.0360   131.2220    10.1190 Si            1 RES     
    4379 O            2.8930   122.2920     2.5400 O             1 RES     
    4380 Si          27.6670   116.0710     7.8400 Si            1 RES     
    4381 O           28.8060   113.8260     5.0430 O             1 RES     
    4382 Si          24.8180   112.7050    10.9700 Si            1 RES     
    4383 Si          48.9160   133.1910     8.2340 Si            1 RES     
    4384 Si          19.3220   138.0950    12.5930 Si            1 RES     
    4385 Si           1.9380   135.8990    11.6940 Si            1 RES     
    4386 OS          49.5410   147.6210    12.5080 OS            1 RES     
    4387 O           45.7460   137.2740    11.2740 O             1 RES     
    4388 OS           9.6630   130.5690    12.2770 OS            1 RES     
    4389 Si          19.9030   114.9890     8.5670 Si            1 RES     
    4390 O           25.7710   104.4830     6.4720 O             1 RES     
    4391 O           48.9850   132.2290     4.6010 O             1 RES     
    4392 Si          37.7750   139.8480     6.4840 Si            1 RES     
    4393 O            8.1810   101.0180     6.6000 O             1 RES     
    4394 O            7.9860   109.8280     2.0970 O             1 RES     
    4395 Si          29.5330   133.3360     5.4390 Si            1 RES     
    4396 O           46.2350   123.4670     5.7550 O             1 RES     
    4397 Si          17.2150   128.3100     6.4770 Si            1 RES     
    4398 O           23.2530   107.7300     5.9480 O             1 RES     
    4399 O           20.2230   141.7250     6.0320 O             1 RES     
    4400 Si          14.1060   102.9270    12.3560 Si            1 RES     
    4401 O           19.4250   126.0820     8.9530 O             1 RES     
    4402 Si           7.2080   148.9900     9.7760 Si            1 RES     
    4403 OS          13.0180   137.7460    13.3970 OS            1 RES     
    4404 Si          49.0280   116.6680     9.7360 Si            1 RES     
    4405 O           38.7140   139.7180     7.7470 O             1 RES     
    4406 Si          30.7840   146.8420     5.9520 Si            1 RES     
    4407 O           10.4830   129.8580     4.8470 O             1 RES     
    4408 O           43.3200   141.9460     1.6670 O             1 RES     
    4409 Si          18.2410   112.9120    10.1490 Si            1 RES     
    4410 O           10.7840   143.1810    10.3760 O             1 RES     
    4411 O           42.2450   142.8690     9.2390 O             1 RES     
    4412 Si          28.5000   122.7930     8.3570 Si            1 RES     
    4413 O            4.2370   121.0310    10.8790 O             1 RES     
    4414 O           31.8450   108.4730    11.9550 O             1 RES     
    4415 O           44.0220   122.2570     9.9290 O             1 RES     
    4416 Si          39.1410   149.3650     6.8780 Si            1 RES     
    4417 Si           5.3790   100.2450     4.5480 Si            1 RES     
    4418 O            8.0870   110.3600     7.2540 O             1 RES     
    4419 O           29.9120   143.3700     9.5960 O             1 RES     
    4420 Si          43.3470   117.3420     9.7490 Si            1 RES     
    4421 O           21.2180   138.5560     4.1250 O             1 RES     
    4422 Si          46.2780   118.2610    10.0530 Si            1 RES     
    4423 O           19.3690   139.5920     7.2420 O             1 RES     
    4424 O           47.3990   113.5140     4.6950 O             1 RES     
    4425 Si          29.8150   133.5000    12.2720 Si            1 RES     
    4426 O           29.7090   104.6080     3.9520 O             1 RES     
    4427 O           24.4790   106.5760     3.9720 O             1 RES     
    4428 Si          45.4830   100.4720     2.9760 Si            1 RES     
    4429 O           42.9600   121.7040     4.9030 O             1 RES     
    4430 O           11.2310   119.0010     2.7990 O             1 RES     
    4431 Si          30.8700   108.1510     3.5780 Si            1 RES     
    4432 Si          10.7240   144.5390     9.5680 Si            1 RES     
    4433 O           44.5910   103.2770    10.0920 O             1 RES     
    4434 OS          40.6880   112.9890    12.1640 OS            1 RES     
    4435 O           23.7620   134.0750     5.5450 O             1 RES     
    4436 O           28.5770   119.4320     4.6810 O             1 RES     
    4437 Si          48.8450   132.4750     3.0400 Si            1 RES     
    4438 O            2.2640   128.7650    11.3580 O             1 RES     
    4439 O            8.7090   118.4050    12.0580 O             1 RES     
    4440 Si          36.6600   129.8290     3.7120 Si            1 RES     
    4441 O           24.6190   121.3980     7.7070 O             1 RES     
    4442 Si          39.7760   127.3710    10.4760 Si            1 RES     
    4443 OS          48.4250   130.9370    11.5870 OS            1 RES     
    4444 O           36.1050   103.2680     8.2910 O             1 RES     
    4445 O           12.4430   101.3040     8.2790 O             1 RES     
    4446 Si          33.4360   116.4340    10.8380 Si            1 RES     
    4447 Si          30.7530   104.1730     5.0870 Si            1 RES     
    4448 O            6.1070   138.0600     5.8620 O             1 RES     
    4449 O           38.6680   136.4770     8.9480 O             1 RES     
    4450 Si          11.1630   109.6020     5.7720 Si            1 RES     
    4451 Si          40.3730   114.4940     8.7190 Si            1 RES     
    4452 O           49.6810   132.3530     7.0340 O             1 RES     
    4453 OS          14.2170   122.5440    13.1760 OS            1 RES     
    4454 O           33.6960   115.5260     7.1440 O             1 RES     
    4455 O           34.6540   149.6130     3.8450 O             1 RES     
    4456 O            0.6790   130.3410     5.3820 O             1 RES     
    4457 Si          19.0850   148.6460    12.2470 Si            1 RES     
    4458 Si          22.1510   102.9900    10.5480 Si            1 RES     
    4459 O           34.7300   136.8210     2.4400 O             1 RES     
    4460 O            2.4910   118.3390     2.9200 O             1 RES     
    4461 Si          46.3210   141.5570     3.9180 Si            1 RES     
    4462 O           35.5150   112.7300     1.6720 O             1 RES     
    4463 O           20.6750   135.7400     9.5880 O             1 RES     
    4464 O           44.1660   126.3470     8.2340 O             1 RES     
    4465 Si           0.5010   125.4290     7.9210 Si            1 RES     
    4466 O           25.2210   139.4880     5.9300 O             1 RES     
    4467 OS          46.3090   135.2350    12.6710 OS            1 RES     
    4468 O           19.1550   107.3510     3.9290 O             1 RES     
    4469 O           24.3180   125.4750     7.2570 O             1 RES     
    4470 O           44.5330   142.4470    10.6150 O             1 RES     
    4471 O           32.8890   137.2560     8.9580 O             1 RES     
    4472 Si          10.0770   118.5520     6.3800 Si            1 RES     
    4473 Si          15.4110   112.2030     8.9330 Si            1 RES     
    4474 Si          23.5250   122.0570    12.3530 Si            1 RES     
    4475 O           32.6580   129.0700    10.7970 O             1 RES     
    4476 O           18.9780   111.5120    10.0640 O             1 RES     
    4477 OS          25.6930   119.3670    13.4870 OS            1 RES     
    4478 O           42.1530   109.8200     4.4030 O             1 RES     
    4479 OS          31.5440   117.1520    13.7880 OS            1 RES     
    4480 O           18.3820   107.7760    11.1990 O             1 RES     
    4481 Si          19.9120   125.9010    10.4390 Si            1 RES     
    4482 Si          21.2670   139.6860     3.0300 Si            1 RES     
    4483 O           10.3610   144.5950     2.8460 O             1 RES     
    4484 O           19.7400   145.9700     3.4200 O             1 RES     
    4485 Si          18.8430   110.6020     5.8770 Si            1 RES     
    4486 O           11.3070   124.0840     8.6510 O             1 RES     
    4487 O           21.1670   101.4560    13.9310 O             1 RES     
    4488 O            8.0970   129.2030     4.1690 O             1 RES     
    4489 O           33.8360   110.8010     2.9710 O             1 RES     
    4490 O            1.1100   120.6060     3.1090 O             1 RES     
    4491 Si          46.7980   120.7630     8.3390 Si            1 RES     
    4492 O           12.9400   138.4750     8.8170 O             1 RES     
    4493 Si          29.6600   144.8580    10.0510 Si            1 RES     
    4494 O           11.2120   115.4640     8.3510 O             1 RES     
    4495 Si          39.6190   102.0610     8.6460 Si            1 RES     
    4496 O           19.3910   139.6610    12.7410 O             1 RES     
    4497 O           47.5620   107.4470     5.5700 O             1 RES     
    4498 Si          39.2700   136.7440    10.3940 Si            1 RES     
    4499 O           43.0340   118.0030     8.3440 O             1 RES     
    4500 Si          31.7660   106.8110     9.2550 Si            1 RES     
    4501 O            2.4310   120.7180     6.6690 O             1 RES     
    4502 Si          41.7730   144.6900    12.3280 Si            1 RES     
    4503 O           28.3720   133.8490     7.0030 O             1 RES     
    4504 OS          12.9090   127.3060    12.5350 OS            1 RES     
    4505 Si           4.1990   105.0560    10.8450 Si            1 RES     
    4506 O           39.9540   105.4880     5.1340 O             1 RES     
    4507 Si           2.1290   114.5270     4.0690 Si            1 RES     
    4508 Si          23.8080   108.7590     7.0580 Si            1 RES     
    4509 O           15.0930   100.7780     4.4410 O             1 RES     
    4510 O           34.8950   104.1750     6.5650 O             1 RES     
    4511 OS          34.3920   129.4680    12.5620 OS            1 RES     
    4512 O            3.3300   122.7720     8.3380 O             1 RES     
    4513 O           18.1330   109.5050     2.4330 O             1 RES     
    4514 O           12.2920   144.5360     9.1110 O             1 RES     
    4515 O            6.9350   120.8710     7.3810 O             1 RES     
    4516 Si           8.2440   137.4110     8.3920 Si            1 RES     
    4517 OS          25.8330   115.4440    13.8280 OS            1 RES     
    4518 Si          13.5490   134.3190    11.9030 Si            1 RES     
    4519 Si          19.7110   107.5830    10.4450 Si            1 RES     
    4520 Si          28.6080   115.3720     4.9640 Si            1 RES     
    4521 O           39.9930   104.1720     3.0720 O             1 RES     
    4522 Si          25.0340   132.0940     8.5620 Si            1 RES     
    4523 O           43.6290   133.2150     5.0040 O             1 RES     
    4524 Si          11.3430   141.5240     4.6710 Si            1 RES     
    4525 Si          27.0130   113.1390     8.3330 Si            1 RES     
    4526 Si          48.9600   113.6160     4.9470 Si            1 RES     
    4527 O           26.9220   129.1920     9.9540 O             1 RES     
    4528 Si           6.3490   126.5680     6.4490 Si            1 RES     
    4529 O           26.2180   103.1580    10.9840 O             1 RES     
    4530 O           33.2120   116.3800     9.3320 O             1 RES     
    4531 OS           6.4260   134.7250    12.1420 OS            1 RES     
    4532 O           19.1830   148.4110     2.8480 O             1 RES     
    4533 Si           2.8540   146.5740     8.6460 Si            1 RES     
    4534 O           40.5630   135.5950     5.7950 O             1 RES     
    4535 O           33.2630   110.6490     7.6910 O             1 RES     
    4536 O           44.8170   149.4930     6.4370 O             1 RES     
    4537 O           15.8050   100.2400    11.7960 O             1 RES     
    4538 Si          29.1690   140.2680     6.9740 Si            1 RES     
    4539 O           24.2300   132.0940     9.9360 O             1 RES     
    4540 OS          36.0060   114.0500    12.9430 OS            1 RES     
    4541 Si           4.1400   131.8930    12.2360 Si            1 RES     
    4542 O           13.9600   135.7890    11.8600 O             1 RES     
    4543 O           10.1560   117.0980     6.7790 O             1 RES     
    4544 O           31.4100   138.4720    11.0010 O             1 RES     
    4545 O           16.3110   109.1870    12.1930 O             1 RES     
    4546 O           49.7160   106.1130    11.9960 O             1 RES     
    4547 Si          46.2190   106.7850     6.0930 Si            1 RES     
    4548 O            0.5590   124.8310     9.4250 O             1 RES     
    4549 O           31.0190   112.8100     4.2520 O             1 RES     
    4550 O           42.5120   113.8110     3.3200 O             1 RES     
    4551 O           44.9820   135.0040     3.9540 O             1 RES     
    4552 Si          47.8900   140.3320     9.3920 Si            1 RES     
    4553 OS          40.7650   119.2600    12.4870 OS            1 RES     
    4554 O           49.3310   134.6780     8.0710 O             1 RES     
    4555 O            6.5610   109.2230     3.8240 O             1 RES     
    4556 O           34.6850   112.5290    11.3780 O             1 RES     
    4557 Si          24.1050   139.4900    10.4800 Si            1 RES     
    4558 O           33.2570   100.2650     5.6660 O             1 RES     
    4559 O           22.7900   109.8900     7.1890 O             1 RES     
    4560 O           32.6950   135.6060     6.7950 O             1 RES     
    4561 OS           5.9340   128.2390    12.2320 OS            1 RES     
    4562 O           29.9530   115.9870     4.5410 O             1 RES     
    4563 Si          45.8740   113.8780     8.0790 Si            1 RES     
    4564 O           43.1760   124.2670    13.5710 O             1 RES     
    4565 O           34.1640   117.8210    10.9570 O             1 RES     
    4566 Si          49.1160   120.2060    11.9690 Si            1 RES     
    4567 O           15.7400   110.8380     8.1330 O             1 RES     
    4568 Si           5.7440   146.3750     9.5310 Si            1 RES     
    4569 O           38.2740   124.3050    10.1730 O             1 RES     
    4570 O           43.1520   101.7600     6.8610 O             1 RES     
    4571 O           24.4440   116.8930     9.2070 O             1 RES     
    4572 Si          47.1230   144.1060     8.0430 Si            1 RES     
    4573 Si          32.3110   113.8020     4.0170 Si            1 RES     
    4574 O           27.0840   100.2090     8.7460 O             1 RES     
    4575 Si          42.5260   124.7440    12.2770 Si            1 RES     
    4576 O           48.5480   109.5350     6.5140 O             1 RES     
    4577 O           32.0830   105.2400     9.5810 O             1 RES     
    4578 Si          30.7770   106.9750     6.3810 Si            1 RES     
    4579 O           32.6560   117.3460     3.5770 O             1 RES     
    4580 Si          22.9830   146.9500     5.2330 Si            1 RES     
    4581 Si          10.7820   122.8880     7.5800 Si            1 RES     
    4582 O           37.9150   135.4680     2.4360 O             1 RES     
    4583 Si          28.5620   110.2560     3.2980 Si            1 RES     
    4584 O           39.5970   108.4610     6.8880 O             1 RES     
    4585 OS          28.0860   127.0470    12.8440 OS            1 RES     
    4586 Si          12.4540   100.0520     9.2110 Si            1 RES     
    4587 O           46.1330   118.2330    11.5320 O             1 RES     
    4588 O           25.1730   109.3400     6.4250 O             1 RES     
    4589 O           33.3330   144.0330    10.0310 O             1 RES     
    4590 O           41.8390   124.0760     5.2260 O             1 RES     
    4591 Si          37.3600   117.2670     7.9960 Si            1 RES     
    4592 Si          28.2610   128.7300     5.8670 Si            1 RES     
    4593 Si          30.2820   108.1480    12.0040 Si            1 RES     
    4594 O            3.8730   102.3210     7.7110 O             1 RES     
    4595 O            9.8770   149.4910    12.5530 O             1 RES     
    4596 O           14.0220   110.2330    11.5570 O             1 RES     
    4597 Si          22.5800   113.5060     8.3100 Si            1 RES     
    4598 O           49.1180   101.8730     9.3660 O             1 RES     
    4599 Si          48.9490   114.0960     8.0240 Si            1 RES     
    4600 Si          46.8790   103.8960     6.8860 Si            1 RES     
    4601 O           35.4650   132.8620     6.0240 O             1 RES     
    4602 O           27.1510   137.9040     8.7450 O             1 RES     
    4603 Si          17.7620   123.1290     3.9820 Si            1 RES     
    4604 O           26.4320   117.0710     7.9550 O             1 RES     
    4605 OS          23.7870   128.9780    13.9750 OS            1 RES     
    4606 O           14.9030   122.0870     6.1110 O             1 RES     
    4607 O           16.5420   143.3890     8.1150 O             1 RES     
    4608 O            0.9190   122.9880     4.2150 O             1 RES     
    4609 Si          17.7200   113.2740     4.9340 Si            1 RES     
    4610 O            5.1420   142.4580     8.9610 O             1 RES     
    4611 O           34.5830   108.8080     5.8920 O             1 RES     
    4612 O            0.6930   122.6550     1.5560 O             1 RES     
    4613 O           27.9120   144.4110     6.9660 O             1 RES     
    4614 Si          48.7060   112.1020    12.1750 Si            1 RES     
    4615 O           18.3710   113.4360    11.6530 O             1 RES     
    4616 O           40.0080   104.3710    11.6840 O             1 RES     
    4617 O           18.3840   114.6960     5.1130 O             1 RES     
    4618 O            5.2630   146.3220    11.0400 O             1 RES     
    4619 O           47.8390   121.1070     5.3680 O             1 RES     
    4620 Si          26.3970   115.0080    12.4620 Si            1 RES     
    4621 O           42.3170   126.3140     6.2530 O             1 RES     
    4622 O           25.3350   107.2390    10.7060 O             1 RES     
    4623 Si          31.4810   126.0880     8.1040 Si            1 RES     
    4624 O           49.2420   136.2610     5.9950 O             1 RES     
    4625 O           46.9280   102.4810     9.7930 O             1 RES     
    4626 O           36.5390   130.8970     7.4160 O             1 RES     
    4627 O           32.5680   121.7720     6.0700 O             1 RES     
    4628 O            1.2920   119.6120     8.2810 O             1 RES     
    4629 O           24.1240   112.2340     5.0580 O             1 RES     
    4630 Si           3.8400   103.8590     8.0030 Si            1 RES     
    4631 Si           2.7330   107.5870     9.8720 Si            1 RES     
    4632 O            7.5060   125.9090    11.4880 O             1 RES     
    4633 Si           8.4160   124.7610     7.8710 Si            1 RES     
    4634 OS           1.2370   116.9980    13.2580 OS            1 RES     
    4635 O           14.4070   102.7210     7.7180 O             1 RES     
    4636 O           25.0570   140.4720    11.2770 O             1 RES     
    4637 O           21.3450   131.9200     4.4470 O             1 RES     
    4638 Si          11.9350   139.3810     9.6200 Si            1 RES     
    4639 Si          12.9040   102.3990     7.3500 Si            1 RES     
    4640 O           34.6530   104.1580     4.0910 O             1 RES     
    4641 Si          20.6580   132.5660     5.7020 Si            1 RES     
    4642 O            9.9550   106.7670    10.5320 O             1 RES     
    4643 O            6.3270   149.7210     5.6860 O             1 RES     
    4644 O           28.0230   123.1170     4.3880 O             1 RES     
    4645 Si          13.5940   101.3770     4.4050 Si            1 RES     
    4646 O           26.0460   112.7870     7.0520 O             1 RES     
    4647 Si           8.1330   139.0510    11.0320 Si            1 RES     
    4648 O           29.3400   100.0210     9.9030 O             1 RES     
    4649 OS          20.6290   119.5290    12.8240 OS            1 RES     
    4650 O           46.3110   116.6070     5.0460 O             1 RES     
    4651 O           35.1690   109.0720     8.2150 O             1 RES     
    4652 O           22.7640   136.2150    10.5800 O             1 RES     
    4653 O           21.7240   104.2780    11.3080 O             1 RES     
    4654 O           30.1630   119.2540     8.8420 O             1 RES     
    4655 Si          15.8320   117.6140    10.7090 Si            1 RES     
    4656 O           49.4760   139.6740     5.8810 O             1 RES     
    4657 O           17.5210   113.0590     3.3260 O             1 RES     
    4658 Si          13.2090   143.8680     5.5150 Si            1 RES     
    4659 O           36.7560   128.3420     3.2740 O             1 RES     
    4660 O            0.1930   108.2110     7.5440 O             1 RES     
    4661 O           40.9160   108.9220     9.0310 O             1 RES     
    4662 Si          35.5870   148.5000    12.5270 Si            1 RES     
    4663 OS          32.5230   130.9610    12.8910 OS            1 RES     
    4664 Si          26.3850   130.8540     4.7940 Si            1 RES     
    4665 Si          21.2500   100.8260    12.5180 Si            1 RES     
    4666 O           27.9370   128.7950     7.4510 O             1 RES     
    4667 Si          32.3110   101.7010    11.9900 Si            1 RES     
    4668 O           20.8080   103.1280     6.0350 O             1 RES     
    4669 O           40.3960   119.4270    10.0400 O             1 RES     
    4670 O            8.1620   144.6540     3.9810 O             1 RES     
    4671 O           31.2400   147.1840     7.4300 O             1 RES     
    4672 O           23.7120   102.8520    10.9510 O             1 RES     
    4673 Si          21.9530   149.8670     5.1650 Si            1 RES     
    4674 O           28.4080   132.9060    12.4150 O             1 RES     
    4675 Si           2.6000   139.6720    10.1250 Si            1 RES     
    4676 Si          14.2540   120.1500     9.5970 Si            1 RES     
    4677 Si          33.7110   111.3420    11.5940 Si            1 RES     
    4678 O            2.3200   136.0940    10.2110 O             1 RES     
    4679 Si          33.6340   136.2480     7.9020 Si            1 RES     
    4680 O           10.7800   105.6640    12.5930 O             1 RES     
    4681 O           24.1490   143.2310    10.0890 O             1 RES     
    4682 O           43.1390   128.5830    10.8060 O             1 RES     
    4683 O           47.2410   105.9820    11.9870 O             1 RES     
    4684 Si          13.1380   110.7930    10.3950 Si            1 RES     
    4685 O           17.1380   133.0670    11.5390 O             1 RES     
    4686 Si          26.4910   129.8150    11.3490 Si            1 RES     
    4687 O           18.5480   112.0030     5.4170 O             1 RES     
    4688 O           31.5450   135.9710     4.5650 O             1 RES     
    4689 Si           0.7740   147.0520     3.7350 Si            1 RES     
    4690 O            2.5520   107.5940     3.3250 O             1 RES     
    4691 Si          45.9920   132.1560     8.3110 Si            1 RES     
    4692 O           44.3380   146.0900     7.4270 O             1 RES     
    4693 Si          43.0130   129.5670     5.5960 Si            1 RES     
    4694 Si          43.2570   104.0900    10.1390 Si            1 RES     
    4695 OS           6.7530   110.6080    12.1240 OS            1 RES     
    4696 Si          27.4220   103.6870    10.1520 Si            1 RES     
    4697 O           20.0630   139.6790     1.9350 O             1 RES     
    4698 O           17.8060   100.4220     4.2120 O             1 RES     
    4699 O           38.2740   106.0910    11.2360 O             1 RES     
    4700 O            4.5930   139.7580     5.1360 O             1 RES     
    4701 Si          28.9100   101.9180     6.1170 Si            1 RES     
    4702 O           11.7560   106.7500     4.0410 O             1 RES     
    4703 Si          24.7800   137.9610     5.9250 Si            1 RES     
    4704 O            9.0370   108.2650     8.6630 O             1 RES     
    4705 O           24.0770   112.4170     2.5300 O             1 RES     
    4706 O            4.5950   149.1400    14.5170 O             1 RES     
    4707 O           24.6140   121.0140    11.8510 O             1 RES     
    4708 O           22.9150   125.2500     2.6540 O             1 RES     
    4709 O           10.7970   147.4620     6.5500 O             1 RES     
    4710 Si          21.8370   141.1810     9.1520 Si            1 RES     
    4711 O            9.1480   107.9230     3.5290 O             1 RES     
    4712 Si          40.5370   109.9940    10.0790 Si            1 RES     
    4713 O            5.7350   105.3190    11.2190 O             1 RES     
    4714 O            1.9570   138.9090     4.9630 O             1 RES     
    4715 O           39.2870   140.1540    10.0700 O             1 RES     
    4716 O            3.8470   117.0590     4.3490 O             1 RES     
    4717 O           17.8950   141.6230     7.1700 O             1 RES     
    4718 Si          41.1600   132.1080     9.2800 Si            1 RES     
    4719 Si           7.5300   118.7090     4.5500 Si            1 RES     
    4720 O           39.2430   110.7900     9.7430 O             1 RES     
    4721 O           38.8950   114.7690     9.3090 O             1 RES     
    4722 Si          32.5590   137.3940    10.4550 Si            1 RES     
    4723 O           36.1270   146.5280     6.8370 O             1 RES     
    4724 O           35.6710   107.5290     3.6010 O             1 RES     
    4725 Si          41.2410   105.5420     6.0670 Si            1 RES     
    4726 O           44.3530   147.2570     5.2990 O             1 RES     
    4727 O           21.0960   111.5510    11.3260 O             1 RES     
    4728 O           36.3140   147.7270     2.8030 O             1 RES     
    4729 Si           3.2690   107.8770     4.6890 Si            1 RES     
    4730 Si          44.3260   132.8360    10.9620 Si            1 RES     
    4731 O            5.9080   144.4830     4.7470 O             1 RES     
    4732 O           37.8670   148.5510     6.9750 O             1 RES     
    4733 Si          47.7890   129.7170     7.8140 Si            1 RES     
    4734 O           10.5360   145.8010    10.8160 O             1 RES     
    4735 O           30.0420   106.9110     3.1560 O             1 RES     
    4736 O           29.3280   125.3040     5.3200 O             1 RES     
    4737 O            2.6590   104.1220     4.7300 O             1 RES     
    4738 O            3.6920   139.0040     2.9030 O             1 RES     
    4739 O           46.0630   107.6860    10.0550 O             1 RES     
    4740 Si          42.8980   139.7550    11.7930 Si            1 RES     
    4741 Si          44.6300   132.1160     5.5620 Si            1 RES     
    4742 Si           6.6730   128.6420     4.1830 Si            1 RES     
    4743 O           35.2920   112.1580     4.2350 O             1 RES     
    4744 O           23.1660   115.8090     4.5290 O             1 RES     
    4745 OS          36.2370   133.6100    13.1820 OS            1 RES     
    4746 O            7.7920   119.5000     3.2450 O             1 RES     
    4747 Si          39.0220   139.1650     3.7950 Si            1 RES     
    4748 O           38.6900   139.3440     5.2950 O             1 RES     
    4749 Si          20.5840   146.4850     9.0350 Si            1 RES     
    4750 Si          26.1220   106.8770     3.7100 Si            1 RES     
    4751 O           20.6050   127.2480    10.9330 O             1 RES     
    4752 O           42.4750   143.0040     4.0240 O             1 RES     
    4753 O           48.6060   116.6050     3.7510 O             1 RES     
    4754 OS          31.7590   128.7610    13.1040 OS            1 RES     
    4755 O           17.4440   110.2380     6.5740 O             1 RES     
    4756 O           29.8050   109.3610     3.5760 O             1 RES     
    4757 O           24.9300   102.2730     5.9240 O             1 RES     
    4758 O           28.3520   110.3970     1.7180 O             1 RES     
    4759 O           45.0480   149.2860     3.9300 O             1 RES     
    4760 O           48.9510   141.4400     9.0160 O             1 RES     
    4761 Si          23.2200   144.8880     8.7860 Si            1 RES     
    4762 O           46.5110   130.6330     8.0910 O             1 RES     
    4763 Si           2.9310   120.3950    11.4460 Si            1 RES     
    4764 O           37.0440   136.4570     7.0990 O             1 RES     
    4765 OS          23.2340   145.3400    13.3730 OS            1 RES     
    4766 Si           4.5790   117.8720    12.0130 Si            1 RES     
    4767 O           31.9420   131.6430     9.0490 O             1 RES     
    4768 Si          20.8980   121.6300     7.9010 Si            1 RES     
    4769 O           20.6810   124.5750    10.5290 O             1 RES     
    4770 Si          49.8680   139.7510    11.6200 Si            1 RES     
    4771 O           46.8890   141.2540    10.2250 O             1 RES     
    4772 Si          41.9310   129.5470    10.6970 Si            1 RES     
    4773 O            0.9740   105.9620     6.5700 O             1 RES     
    4774 O           15.6560   134.3010     8.0550 O             1 RES     
    4775 O           11.1760   149.7570    10.1540 O             1 RES     
    4776 O           16.9850   120.3870     6.9930 O             1 RES     
    4777 O           21.1540   122.3680     9.2110 O             1 RES     
    4778 Si           7.0370   104.9610    12.2210 Si            1 RES     
    4779 O            9.8820   135.6720     2.0770 O             1 RES     
    4780 O            2.4470   100.3440    10.6000 O             1 RES     
    4781 Si          34.4530   145.6960    12.7250 Si            1 RES     
    4782 O           35.4760   100.9680    10.6270 O             1 RES     
    4783 O           38.3100   116.9160     6.8450 O             1 RES     
    4784 Si          49.5990   110.9130     3.3680 Si            1 RES     
    4785 O           30.3820   140.4390    11.8390 O             1 RES     
    4786 O            2.3780   148.0490     9.1800 O             1 RES     
    4787 O           11.9200   135.5030     8.8340 O             1 RES     
    4788 Si          11.6610   142.2820    11.3350 Si            1 RES     
    4789 O           16.2840   102.2140     9.1100 O             1 RES     
    4790 O           28.8800   123.1380     6.8910 O             1 RES     
    4791 Si          15.1530   108.2330     3.0780 Si            1 RES     
    4792 O           37.6080   116.6840     3.1480 O             1 RES     
    4793 O           16.5280   123.4710     4.8550 O             1 RES     
    4794 O            2.0400   119.3430    10.6480 O             1 RES     
    4795 O           26.6770   132.2300     8.4070 O             1 RES     
    4796 O           34.8490   145.1810     8.5100 O             1 RES     
    4797 O           44.2890   139.3050    11.3820 O             1 RES     
    4798 O           33.8490   120.4930    11.2560 O             1 RES     
    4799 O           22.5550   139.5800     2.1820 O             1 RES     
    4800 O           42.6690   141.1440    11.1220 O             1 RES     
    4801 O            1.5370   126.3480    11.4820 O             1 RES     
    4802 O           31.1460   146.0030     2.2060 O             1 RES     
    4803 O            6.7110   137.0250     8.4600 O             1 RES     
    4804 O           40.4520   126.0420     4.4160 O             1 RES     
    4805 Si           1.4310   129.3570     4.3530 Si            1 RES     
    4806 Si          29.4410   144.1440     6.3630 Si            1 RES     
    4807 Si          34.5620   137.2000    12.6940 Si            1 RES     
    4808 O           15.4150   117.9690     3.7480 O             1 RES     
    4809 O           48.6890   129.9460     9.1440 O             1 RES     
    4810 Si          19.7040   135.1190     4.3010 Si            1 RES     
    4811 Si           9.2350   140.2780     8.5050 Si            1 RES     
    4812 O           10.1700   122.6780     3.4770 O             1 RES     
    4813 O           28.0260   148.4980     3.9550 O             1 RES     
    4814 Si          10.2590   107.0960     4.3300 Si            1 RES     
    4815 Si          10.7680   100.3680     4.1590 Si            1 RES     
    4816 O            7.4330   133.4430    10.3300 O             1 RES     
    4817 O           37.5930   112.8270     9.0240 O             1 RES     
    4818 O           39.2760   149.7930     5.2960 O             1 RES     
    4819 Si          40.4220   122.1860     8.0240 Si            1 RES     
    4820 O           41.5440   130.2860     5.8490 O             1 RES     
    4821 Si          15.1180   123.4980     5.5180 Si            1 RES     
    4822 O           37.2250   144.6220     8.1630 O             1 RES     
    4823 Si          37.4620   129.9450     6.6480 Si            1 RES     
    4824 O           28.2940   102.3970     9.6980 O             1 RES     
    4825 Si          49.9060   116.3460     2.8790 Si            1 RES     
    4826 O            2.1370   121.5170    12.1680 O             1 RES     
    4827 O           43.6060   134.1830    10.4770 O             1 RES     
    4828 Si          40.0440   122.8680     2.7750 Si            1 RES     
    4829 Si          30.3540   149.4740    11.0060 Si            1 RES     
    4830 O           10.4660   128.0500     3.3230 O             1 RES     
    4831 O           43.5030   129.4090     4.0760 O             1 RES     
    4832 O           12.3350   134.3870    10.9070 O             1 RES     
    4833 Si          30.2830   135.4870    10.0540 Si            1 RES     
    4834 O            1.5180   107.7760    10.8100 O             1 RES     
    4835 OS          13.9350   148.6380    12.4890 OS            1 RES     
    4836 O           11.8470   115.4370     5.8870 O             1 RES     
    4837 Si          36.3330   141.9210    10.7280 Si            1 RES     
    4838 Si          35.4250   149.3560     9.7630 Si            1 RES     
    4839 O           20.1260   110.3950     6.6900 O             1 RES     
    4840 O           42.1540   103.4420    10.9540 O             1 RES     
    4841 OS          48.7590   104.2680    13.4230 OS            1 RES     
    4842 O           34.3070   145.7400    11.1810 O             1 RES     
    4843 Si          28.9580   119.7090    12.6810 Si            1 RES     
    4844 O           13.5450   102.5430     3.3690 O             1 RES     
    4845 Si          10.8420   126.5980     2.8430 Si            1 RES     
    4846 Si          20.2770   123.7320     5.6520 Si            1 RES     
    4847 Si          14.4350   138.4700     8.2500 Si            1 RES     
    4848 O           14.3810   138.4590    11.4540 O             1 RES     
    4849 Si          40.9010   107.9910    12.3730 Si            1 RES     
    4850 Si           4.0140   112.4090     2.8490 Si            1 RES     
    4851 O           46.4900   105.3760     6.6270 O             1 RES     
    4852 O           43.7220   105.6280     2.8890 O             1 RES     
    4853 OS           9.7740   108.0690    12.8280 OS            1 RES     
    4854 O           11.2780   122.8880     6.1010 O             1 RES     
    4855 Si          34.9060   119.1140     7.6960 Si            1 RES     
    4856 O           14.3030   107.0030     3.5270 O             1 RES     
    4857 O            7.6360   104.7540     3.4860 O             1 RES     
    4858 O            1.1770   136.5940     7.9670 O             1 RES     
    4859 Si          41.8900   136.6090     5.6030 Si            1 RES     
    4860 Si           8.3270   124.6850    10.8860 Si            1 RES     
    4861 Si          48.5580   137.0190     4.7550 Si            1 RES     
    4862 O           18.0280   124.1480     2.7820 O             1 RES     
    4863 O           38.2120   140.3700     3.1680 O             1 RES     
    4864 O           13.2290   118.9340     4.1960 O             1 RES     
    4865 O            1.5240   142.1600     5.3490 O             1 RES     
    4866 O           34.2080   141.4020     2.9950 O             1 RES     
    4867 O            9.9340   130.2440     7.3410 O             1 RES     
    4868 O            2.0630   115.5610     2.9380 O             1 RES     
    4869 Si          27.0240   128.3330     8.6310 Si            1 RES     
    4870 O           38.5380   140.3870    12.5310 O             1 RES     
    4871 O           35.8430   105.7330    11.5410 O             1 RES     
    4872 O           27.5350   102.5990     5.9240 O             1 RES     
    4873 Si          43.6470   106.3850     4.3100 Si            1 RES     
    4874 O           42.4490   145.0810     5.6010 O             1 RES     
    4875 O           38.6840   134.5900     7.1850 O             1 RES     
    4876 Si          43.7680   126.7680     6.7440 Si            1 RES     
    4877 O           47.2250   126.1170     2.2900 O             1 RES     
    4878 O            4.9090   117.5310    10.4690 O             1 RES     
    4879 O           28.7750   105.2600     1.7050 O             1 RES     
    4880 Si          31.4390   121.9590     5.0050 Si            1 RES     
    4881 Si          21.4930   110.7350     7.5580 Si            1 RES     
    4882 O           13.9710   106.4620     5.8890 O             1 RES     
    4883 O           33.0330   113.1450     8.0570 O             1 RES     
    4884 Si          34.9240   133.4730     4.7240 Si            1 RES     
    4885 OS          26.3210   132.7020    13.5690 OS            1 RES     
    4886 Si          31.5440   141.4570    12.4750 Si            1 RES     
    4887 O           29.3740   143.0310     2.4190 O             1 RES     
    4888 O           25.4890   113.7300    12.0520 O             1 RES     
    4889 Si          41.1940   125.4280     5.6740 Si            1 RES     
    4890 Si          25.0190   133.6200     4.5810 Si            1 RES     
    4891 O           25.8520   137.3180     4.9610 O             1 RES     
    4892 O           26.2680   122.5560     2.5550 O             1 RES     
    4893 O           33.7020   103.5210     8.8710 O             1 RES     
    4894 Si          49.5320   136.2110     7.5480 Si            1 RES     
    4895 O            7.9020   112.8950     5.8120 O             1 RES     
    4896 Si          32.6620   121.5750    11.0900 Si            1 RES     
    4897 Si          41.8410   137.7970     9.8630 Si            1 RES     
    4898 O           24.8970   138.6820     9.4090 O             1 RES     
    4899 O           19.4320   130.9940     8.6450 O             1 RES     
    4900 O           23.0340   106.4600    10.7360 O             1 RES     
    4901 Si           6.1230   121.0220     6.0700 Si            1 RES     
    4902 O           26.2580   107.8970     4.8800 O             1 RES     
    4903 O           24.7020   127.8820     4.0000 O             1 RES     
    4904 O            6.7870   143.4910    11.0880 O             1 RES     
    4905 O            4.7200   126.2960     6.7230 O             1 RES     
    4906 O           37.7030   128.5370     7.3720 O             1 RES     
    4907 O           34.9560   133.9470    11.0150 O             1 RES     
    4908 O           14.4000   121.2030    10.7780 O             1 RES     
    4909 OS          17.2170   124.9120    13.6390 OS            1 RES     
    4910 O            4.4340   146.6510     3.6400 O             1 RES     
    4911 O           30.7400   141.4030     3.7310 O             1 RES     
    4912 O            4.3840   113.3880    11.0640 O             1 RES     
    4913 OS          22.1030   111.6210    13.7130 OS            1 RES     
    4914 Si          31.4340   147.1230     9.0250 Si            1 RES     
    4915 OS          36.8030   142.6740    12.0850 OS            1 RES     
    4916 Si          22.1270   135.1590     9.6950 Si            1 RES     
    4917 Si           4.3300   141.3140     8.1820 Si            1 RES     
    4918 O           40.7490   128.5730    10.2950 O             1 RES     
    4919 O           32.6930   140.5850     4.9870 O             1 RES     
    4920 O           31.9860   103.9110     4.1460 O             1 RES     
    4921 O           45.5510   109.8530     8.1410 O             1 RES     
    4922 Si          30.2600   126.5190     5.2240 Si            1 RES     
    4923 Si          30.8330   116.8930    12.4020 Si            1 RES     
    4924 Si          33.1600   128.3150     9.5480 Si            1 RES     
    4925 O           44.0770   147.9320    12.2840 O             1 RES     
    4926 O           47.5480   138.0060     5.6180 O             1 RES     
    4927 Si          37.6450   127.2860     8.3550 Si            1 RES     
    4928 O           27.5640   124.5850    13.4620 O             1 RES     
    4929 O            7.1940   124.1080     3.5390 O             1 RES     
    4930 Si          16.4750   100.4530     5.0370 Si            1 RES     
    4931 OS          19.0150   133.9640    12.9490 OS            1 RES     
    4932 Si          13.7360   146.8480     4.7960 Si            1 RES     
    4933 O           45.7160   103.1720     7.7260 O             1 RES     
    4934 O           47.2460   143.8840     6.4930 O             1 RES     
    4935 O           33.8920   107.0090    12.1530 O             1 RES     
    4936 Si          39.0750   105.0900     3.8950 Si            1 RES     
    4937 O            7.5480   121.7370     2.2120 O             1 RES     
    4938 O           38.7150   111.9880     2.8450 O             1 RES     
    4939 O           17.3960   145.5620     7.7220 O             1 RES     
    4940 Si          25.4570   100.0150     8.9280 Si            1 RES     
    4941 O           26.8410   131.3830    11.3970 O             1 RES     
    4942 Si           6.6870   128.7520     8.6050 Si            1 RES     
    4943 O           22.9350   108.4130     3.4420 O             1 RES     
    4944 O           39.6580   123.4910     8.2180 O             1 RES     
    4945 O           40.5220   113.4140     7.5850 O             1 RES     
    4946 O           12.5910   140.7200     5.2870 O             1 RES     
    4947 OS          29.9960   121.1650    13.4540 OS            1 RES     
    4948 Si          41.0860   112.8460     6.2010 Si            1 RES     
    4949 Si          16.5360   142.3980     6.8450 Si            1 RES     
    4950 O            5.2850   129.5070     8.5800 O             1 RES     
    4951 Si          45.8050   126.2980     2.8180 Si            1 RES     
    4952 O           13.0470   146.5060     7.9250 O             1 RES     
    4953 O            0.7180   149.8240     8.9760 O             1 RES     
    4954 Si          11.1980   135.2150    10.2120 Si            1 RES     
    4955 O           16.1250   127.2630     7.1250 O             1 RES     
    4956 O           42.0090   108.9310     6.7160 O             1 RES     
    4957 O           29.4600   107.4260     7.0500 O             1 RES     
    4958 Si          24.4940   116.1220     5.1530 Si            1 RES     
    4959 O           14.2950   124.3120     4.4240 O             1 RES     
    4960 O           29.1570   132.0700     6.3030 O             1 RES     
    4961 O           16.2070   142.0650     2.8460 O             1 RES     
    4962 Si           9.1930   102.1070     6.1930 Si            1 RES     
    4963 O           22.3780   110.9030     3.1270 O             1 RES     
    4964 O           29.5450   127.8690     5.5900 O             1 RES     
    4965 Si           9.7130   135.8030     6.0890 Si            1 RES     
    4966 O           16.2530   139.6080     2.5560 O             1 RES     
    4967 O           36.1380   134.2730     4.0100 O             1 RES     
    4968 O           41.4980   104.0980     6.5750 O             1 RES     
    4969 O           44.7810   141.7280     3.7870 O             1 RES     
    4970 Si          21.5530   137.3940     5.0980 Si            1 RES     
    4971 O           15.2540   146.7190     5.0130 O             1 RES     
    4972 Si          48.3050   108.8110     5.0710 Si            1 RES     
    4973 Si          19.3380   136.4260     9.9850 Si            1 RES     
    4974 O           47.7060   108.7760     8.5610 O             1 RES     
    4975 O           16.0610   106.3310     7.6540 O             1 RES     
    4976 O           48.3560   110.4680     2.3570 O             1 RES     
    4977 Si           7.5970   115.8860     3.3550 Si            1 RES     
    4978 Si          33.3320   142.4600    10.1280 Si            1 RES     
    4979 Si          46.0100   136.0040     3.3990 Si            1 RES     
    4980 O           46.9380   140.5590     4.9240 O             1 RES     
    4981 Si          14.4050   118.2450     4.9420 Si            1 RES     
    4982 O           46.1040   111.4080     5.6420 O             1 RES     
    4983 O           27.3830   108.8200     6.7370 O             1 RES     
    4984 O           31.8700   115.0560     3.2500 O             1 RES     
    4985 Si          15.9070   110.0890     6.7220 Si            1 RES     
    4986 O           10.8390   115.5770    10.8400 O             1 RES     
    4987 Si           3.8790   123.8550     9.3030 Si            1 RES     
    4988 O           10.9570   121.5610     8.4690 O             1 RES     
    4989 Si           7.0870   127.4220    11.3940 Si            1 RES     
    4990 O           42.1170   120.9600    11.0440 O             1 RES     
    4991 O           41.2090   106.6220     7.2350 O             1 RES     
    4992 Si           3.2300   116.7320     5.8630 Si            1 RES     
    4993 O           25.0490   141.8660     6.4780 O             1 RES     
    4994 Si           1.2730   144.7730    10.5840 Si            1 RES     
    4995 O            2.6120   146.4420     7.0790 O             1 RES     
    4996 O           13.6390   149.8840    10.2120 O             1 RES     
    4997 O           30.6700   134.1810     9.2810 O             1 RES     
    4998 Si          41.1270   142.6480     8.1450 Si            1 RES     
    4999 O           40.0150   106.7220    12.7820 O             1 RES     
    5000 OS          46.5220   114.8410    13.6800 OS            1 RES     
    5001 O           19.5030   137.4470    11.1780 O             1 RES     
    5002 O           40.1420   118.5980     7.4890 O             1 RES     
    5003 O            6.4810   145.2430    12.8770 O             1 RES     
    5004 O            3.6000   144.9390     4.7370 O             1 RES     
    5005 O           40.1310   132.9500    10.1810 O             1 RES     
    5006 Si          26.6890   116.7210     3.0580 Si            1 RES     
    5007 O            7.4210   133.3580     4.5400 O             1 RES     
    5008 O           47.3600   132.4420     2.6270 O             1 RES     
    5009 O           38.3920   145.2230     3.4960 O             1 RES     
    5010 O            2.3880   118.0540     6.4230 O             1 RES     
    5011 O           25.3700   136.4550     2.4690 O             1 RES     
    5012 O           33.4470   113.1420     3.1830 O             1 RES     
    5013 OS          24.0410   123.1650    13.5520 OS            1 RES     
    5014 O           36.7380   134.8560     9.1230 O             1 RES     
    5015 O           43.6660   135.3340     8.4330 O             1 RES     
    5016 O           39.8860   102.2040    10.2160 O             1 RES     
    5017 OS          49.6020   112.7850    13.2680 OS            1 RES     
    5018 O           33.9400   124.2910     2.7330 O             1 RES     
    5019 O           11.1720   118.9820     5.3790 O             1 RES     
    5020 O           14.0480   109.3350     3.0620 O             1 RES     
    5021 O           42.7380   134.8950     2.7400 O             1 RES     
    5022 O           45.4570   130.3800     2.5570 O             1 RES     
    5023 O           34.2480   135.0790     8.7640 O             1 RES     
    5024 O           14.3800   126.3200    10.8220 O             1 RES     
    5025 Si           5.3480   149.4170    12.7330 Si            1 RES     
    5026 O           41.5300   111.3990     6.3670 O             1 RES     
    5027 O           46.0850   135.4200     1.9540 O             1 RES     
    5028 Si          11.4050   122.6560     4.4670 Si            1 RES     
    5029 Si           5.4440   146.3220    12.6150 Si            1 RES     
    5030 O           47.9650   103.8760     8.0230 O             1 RES     
    5031 O           22.6100   124.2770     9.1200 O             1 RES     
    5032 O            8.7410   103.2920     5.2770 O             1 RES     
    5033 O           43.1120   113.3500    10.8740 O             1 RES     
    5034 O           40.3440   148.4660     7.4730 O             1 RES     
    5035 OS           3.4810   104.3130    11.9250 OS            1 RES     
    5036 O           15.4450   137.0720    13.3770 O             1 RES     
    5037 O           30.5520   132.6320    11.0970 O             1 RES     
    5038 O           14.9040   113.0700     7.7000 O             1 RES     
    5039 Si          43.4640   134.5120     4.1050 Si            1 RES     
    5040 O           37.2750   141.3190     6.3480 O             1 RES     
    5041 O           16.5790   108.1120     3.7590 O             1 RES     
    5042 O           44.9030   117.5790     9.8250 O             1 RES     
    5043 O           42.4170   123.6620    11.1840 O             1 RES     
    5044 Si          11.8210   119.6120     4.0960 Si            1 RES     
    5045 O            4.2290   104.2180     9.5200 O             1 RES     
    5046 O           11.9240   103.5670     7.9060 O             1 RES     
    5047 Si          23.2640   128.3340     4.5650 Si            1 RES     
    5048 Si          10.6550   115.6260     6.9070 Si            1 RES     
    5049 Si          16.6240   147.4700     4.8540 Si            1 RES     
    5050 O           42.4230   143.5150    11.6360 O             1 RES     
    5051 O           44.6300   113.0840     4.7050 O             1 RES     
    5052 O           24.8870   123.7760     8.7800 O             1 RES     
    5053 Si          44.1340   114.4970    10.5390 Si            1 RES     
    5054 O            1.7890   111.3740     9.7400 O             1 RES     
    5055 Si          36.3550   148.1240     7.1680 Si            1 RES     
    5056 O           10.2310   149.0210     4.5630 O             1 RES     
    5057 O           28.3610   124.1750     9.0730 O             1 RES     
    5058 O           20.6590   143.6390     4.2780 O             1 RES     
    5059 Si          19.3750   141.1540     7.3020 Si            1 RES     
    5060 O           30.9560   111.5940     8.6360 O             1 RES     
    5061 OS          18.8340   109.1030    13.2000 OS            1 RES     
    5062 OS          18.5960   117.9340    13.0090 OS            1 RES     
    5063 O           46.4730   101.5150     3.5410 O             1 RES     
    5064 O           12.2390   125.8070     3.0760 O             1 RES     
    5065 O            7.1170   149.6020     8.2970 O             1 RES     
    5066 O            7.2630   140.2660     5.4760 O             1 RES     
    5067 Si           5.9150   139.6130     6.0160 Si            1 RES     
    5068 O            3.6420   148.2090     1.7190 O             1 RES     
    5069 Si           9.3260   130.2780     8.7720 Si            1 RES     
    5070 O           21.8550   112.2470     7.6560 O             1 RES     
    5071 Si          32.0220   145.5090     3.4310 Si            1 RES     
    5072 Si          26.3280   136.2830     3.8650 Si            1 RES     
    5073 Si          29.2960   149.2110     4.6370 Si            1 RES     
    5074 Si           9.8470   149.8200    11.0250 Si            1 RES     
    5075 O           23.2350   137.5940     5.5630 O             1 RES     
    5076 O            4.4610   104.4630     6.6550 O             1 RES     
    5077 O           37.6840   104.5540     4.2990 O             1 RES     
    5078 O            8.1540   143.7040     6.2390 O             1 RES     
    5079 O           16.5850   103.8740     7.1990 O             1 RES     
    5080 Si          43.4070   114.0150     4.5790 Si            1 RES     
    5081 O           29.2980   138.8270     7.6790 O             1 RES     
    5082 O           29.3870   121.7350     9.2020 O             1 RES     
    5083 Si          19.1950   149.8120     3.6240 Si            1 RES     
    5084 O           38.6720   138.0910    11.0390 O             1 RES     
    5085 Si          37.7770   135.5230     8.0530 Si            1 RES     
    5086 O            0.8420   123.7000    11.6950 O             1 RES     
    5087 Si          45.3090   146.5390     8.6930 Si            1 RES     
    5088 O           40.1670   132.8790     5.9980 O             1 RES     
    5089 O           49.4920   112.2080     4.3130 O             1 RES     
    5090 Si          43.2470   118.1450     6.8110 Si            1 RES     
    5091 O            1.2610   145.9670     4.7330 O             1 RES     
    5092 O           20.5560   106.5140    11.2540 O             1 RES     
    5093 Si          46.4700   121.9070     5.5860 Si            1 RES     
    5094 O           33.7270   104.7470    11.2180 O             1 RES     
    5095 O           48.7680   139.6940    10.5490 O             1 RES     
    5096 Si           3.4020   101.0840     6.7640 Si            1 RES     
    5097 O           21.3330   101.8710    11.3530 O             1 RES     
    5098 O           35.5060   111.1090     6.4490 O             1 RES     
    5099 O           26.7580   104.1720     8.6430 O             1 RES     
    5100 OS          44.5140   128.1680    12.7980 OS            1 RES     
    5101 O           37.1250   104.6340     6.7400 O             1 RES     
    5102 Si          42.0090   108.7670     3.2600 Si            1 RES     
    5103 Si          46.1000   112.5440     4.5270 Si            1 RES     
    5104 OS          49.5030   140.8540    12.6370 OS            1 RES     
    5105 O           11.7300   111.3630    10.8470 O             1 RES     
    5106 Si          10.5060   103.9990     8.3070 Si            1 RES     
    5107 O           26.4340   142.8610    11.3620 O             1 RES     
    5108 OS          10.2690   120.2770    12.7150 OS            1 RES     
    5109 O            4.0880   106.5780     5.0410 O             1 RES     
    5110 Si           4.7960   145.1350     3.8250 Si            1 RES     
    5111 Si          17.2500   136.7620     5.3500 Si            1 RES     
    5112 O           22.6580   135.0170     8.1920 O             1 RES     
    5113 O            4.7760   111.3850     3.7570 O             1 RES     
    5114 Si           2.1730   130.1660    10.6390 Si            1 RES     
    5115 O           29.6660   109.5910    12.2180 O             1 RES     
    5116 Si           1.5830   119.4170     6.7290 Si            1 RES     
    5117 Si           4.1910   130.4610     4.9740 Si            1 RES     
    5118 O           18.7420   119.2920     3.6040 O             1 RES     
    5119 OS          29.6860   144.8840    11.6080 OS            1 RES     
    5120 Si          21.1900   142.2330     4.8640 Si            1 RES     
    5121 O           30.7800   120.5740     4.9990 O             1 RES     
    5122 O           19.1700   119.3410     6.1340 O             1 RES     
    5123 Si          21.9210   105.8130    11.6850 Si            1 RES     
    5124 O           30.8090   116.9810     1.4340 O             1 RES     
    5125 O           19.2280   134.6030     2.8800 O             1 RES     
    5126 Si           4.1090   105.0000     5.1770 Si            1 RES     
    5127 O            6.3600   118.8940     8.8740 O             1 RES     
    5128 O            6.2940   100.6990     3.4020 O             1 RES     
    5129 O           15.1280   103.2530    11.2180 O             1 RES     
    5130 Si          24.5940   116.9940    10.8350 Si            1 RES     
    5131 Si          12.2190   147.6710     7.2280 Si            1 RES     
    5132 O           37.6340   143.1750     4.6860 O             1 RES     
    5133 OS          40.8040   109.0420    13.7160 OS            1 RES     
    5134 Si          27.3070   145.2360     8.2250 Si            1 RES     
    5135 O           33.9980   122.9060     7.6760 O             1 RES     
    5136 O           45.1190   137.2770     3.0810 O             1 RES     
    5137 O            6.8140   147.4990     9.5180 O             1 RES     
    5138 O           14.2680   143.1000     4.5660 O             1 RES     
    5139 O           41.9410   138.7310    11.1050 O             1 RES     
    5140 O            5.3760   140.2880     7.4140 O             1 RES     
    5141 O           40.1690   143.8500     4.6990 O             1 RES     
    5142 O           27.7100   140.7150     6.5120 O             1 RES     
    5143 O           40.9140   141.0570     8.2180 O             1 RES     
    5144 O           30.0460   140.2740     5.7160 O             1 RES     
    5145 O           17.3190   147.0070     3.5200 O             1 RES     
    5146 Si          32.9580   104.0070    10.1090 Si            1 RES     
    5147 Si          34.8320   134.0840    12.5900 Si            1 RES     
    5148 OS           7.6280   143.2180    13.5850 OS            1 RES     
    5149 Si          47.7210   126.6370     7.6180 Si            1 RES     
    5150 O           30.9160   126.5840     3.7620 O             1 RES     
    5151 O           23.9220   142.3280    12.3240 O             1 RES     
    5152 OS          25.8880   140.5100    13.6960 OS            1 RES     
    5153 O           36.9150   115.8830     8.6820 O             1 RES     
    5154 O           21.1230   147.8380     9.4230 O             1 RES     
    5155 O           21.3940   124.2170     4.6260 O             1 RES     
    5156 OS          38.1040   125.3190    12.6240 OS            1 RES     
    5157 Si          32.5640   111.8050     8.6730 Si            1 RES     
    5158 O           33.7820   118.0900     7.4940 O             1 RES     
    5159 OS           9.2800   139.5730    11.9060 OS            1 RES     
    5160 O            1.9720   101.2120     6.1930 O             1 RES     
    5161 O           46.1200   147.9080     8.9550 O             1 RES     
    5162 O           15.0400   145.0910     8.8960 O             1 RES     
    5163 O           40.8230   125.8370     1.9520 O             1 RES     
    5164 O            5.1570   133.7200     3.2020 O             1 RES     
    5165 Si          43.0790   147.3120    11.1950 Si            1 RES     
    5166 O           21.8820   118.2290     2.1210 O             1 RES     
    5167 O            9.7870   141.1050     4.7360 O             1 RES     
    5168 O            6.1870   110.7460     5.5900 O             1 RES     
    5169 O           34.0590   149.7060     8.3830 O             1 RES     
    5170 O           46.9490   142.9200     4.2110 O             1 RES     
    5171 O           40.5380   139.4770     3.5280 O             1 RES     
    5172 O           25.0980   148.5330     8.5770 O             1 RES     
    5173 Si          33.8420   145.4100     9.7360 Si            1 RES     
    5174 O            1.0700   129.6330     2.7850 O             1 RES     
    5175 O           31.7480   146.3360     4.7500 O             1 RES     
    5176 O           45.9950   125.4950     4.1030 O             1 RES     
    5177 Si          24.4620   120.2280     4.2260 Si            1 RES     
    5178 O            1.2180   140.0580    10.7650 O             1 RES     
    5179 O           49.7400   119.9800    10.4620 O             1 RES     
    5180 O           36.5850   107.6310    10.1330 O             1 RES     
    5181 O           32.3760   149.8430     3.1810 O             1 RES     
    5182 OS          29.5430   149.3210    12.4220 OS            1 RES     
    5183 Si          38.2170   148.4220    11.3390 Si            1 RES     
    5184 O           21.5430   131.5880     9.9880 O             1 RES     
    5185 O           34.2360   127.1980    10.1070 O             1 RES     
    5186 Si          28.9930   105.7800     3.1930 Si            1 RES     
    5187 O           16.7080   112.7920     9.7260 O             1 RES     
    5188 OS           8.3120   128.2320    12.0050 OS            1 RES     
    5189 Si          17.5100   125.8340    12.3960 Si            1 RES     
    5190 O           13.1120   145.4360     5.0930 O             1 RES     
    5191 O            8.6580   138.8890     7.8230 O             1 RES     
    5192 O           25.4570   130.2240     5.8030 O             1 RES     
    5193 OS          15.4610   130.9980    12.0200 OS            1 RES     
    5194 OS          20.9830   117.0100    12.4260 OS            1 RES     
    5195 O            2.5790   123.0990     5.9300 O             1 RES     
    5196 Si          23.6140   120.2550     7.2040 Si            1 RES     
    5197 O           12.8580   128.5260    10.3000 O             1 RES     
    5198 Si          49.4750   131.2930     5.8120 Si            1 RES     
    5199 OS          30.2560   107.0160    13.1400 OS            1 RES     
    5200 O            1.0510   142.4950     2.7780 O             1 RES     
    5201 O           47.2880   139.8280     7.4040 O             1 RES     
    5202 Si          18.5590   146.0310     6.8330 Si            1 RES     
    5203 Si          34.5940   112.1700     2.8700 Si            1 RES     
    5204 Si          22.8780   132.3050    10.6540 Si            1 RES     
    5205 O           40.5280   115.8970     7.9670 O             1 RES     
    5206 O           49.8640   121.4210    12.6100 O             1 RES     
    5207 Si          42.2390   103.0160     7.4680 Si            1 RES     
    5208 OS           3.7080   132.8340    13.4430 OS            1 RES     
    5209 O            2.5300   134.7780    12.6110 O             1 RES     
    5210 O           49.6160   116.5430    11.2260 O             1 RES     
    5211 Si          27.6710   125.6370    12.2540 Si            1 RES     
    5212 O            9.4760   125.8230     3.2250 O             1 RES     
    5213 OS          16.1200   118.1080    12.2320 OS            1 RES     
    5214 Si           2.5000   136.8800     8.8330 Si            1 RES     
    5215 O           10.4580   119.5140    10.2270 O             1 RES     
    5216 O           31.5910   100.4320    11.3760 O             1 RES     
    5217 O            6.2520   103.0190     2.5250 O             1 RES     
    5218 O           23.7620   120.4510     5.6460 O             1 RES     
    5219 O            6.4440   128.1370     2.6900 O             1 RES     
    5220 Si          32.9600   116.8100     7.8490 Si            1 RES     
    5221 O           45.8420   112.2230     2.9200 O             1 RES     
    5222 Si          32.2490   134.8590     5.3880 Si            1 RES     
    5223 O           43.5730   119.3770     5.9410 O             1 RES     
    5224 O           41.4800   111.2340    10.4330 O             1 RES     
    5225 O           27.1300   119.9590    11.9050 O             1 RES     
    5226 O           43.1120   109.0960     2.1700 O             1 RES     
    5227 O           15.5340   125.4820     8.9350 O             1 RES     
    5228 O           28.6790   123.3450     2.1370 O             1 RES     
    5229 O           44.5210   117.3100     6.5560 O             1 RES     
    5230 O           13.6740   144.1950     7.0730 O             1 RES     
    5231 OS          14.3730   114.0060    12.1490 OS            1 RES     
    5232 O           15.2320   124.6720     6.5390 O             1 RES     
    5233 O           10.0290   105.5380     8.3100 O             1 RES     
    5234 Si          25.5300   122.6310     7.8570 Si            1 RES     
    5235 O            2.1790   147.9090     3.7720 O             1 RES     
    5236 Si          28.9950   123.7520     5.4270 Si            1 RES     
    5237 Si           3.1650   110.6790    10.1300 Si            1 RES     
    5238 O           16.2890   128.8230     5.1010 O             1 RES     
    5239 O           17.3520   132.1840     7.5460 O             1 RES     
    5240 O           34.8070   139.4040     4.0380 O             1 RES     
    5241 Si          36.5260   142.5080     5.6500 Si            1 RES     
    5242 O           19.9540   106.7290     6.2850 O             1 RES     
    5243 OS           4.6190   112.9200    13.5930 OS            1 RES     
    5244 O            2.3390   104.1420     7.6210 O             1 RES     
    5245 O           41.9660   130.8780     9.8350 O             1 RES     
    5246 Si          35.8660   149.2400     2.9200 Si            1 RES     
    5247 O            8.7220   118.7280     5.6150 O             1 RES     
    5248 OS          14.6250   103.0450    13.8430 OS            1 RES     
    5249 Si          35.9630   137.4350     6.4760 Si            1 RES     
    5250 Si           5.4570   115.2780     7.5350 Si            1 RES     
    5251 OS          27.9400   114.5790    12.6080 OS            1 RES     
    5252 Si          43.3240   141.8310     3.2860 Si            1 RES     
    5253 Si          43.4030   146.2690     6.1900 Si            1 RES     
    5254 Si          29.6460   111.3040     7.7860 Si            1 RES     
    5255 O           36.5260   114.3320    10.5830 O             1 RES     
    5256 O           36.0060   143.7990     6.4990 O             1 RES     
    5257 Si           8.0120   114.4310     6.0600 Si            1 RES     
    5258 O           38.2490   118.3300     8.8490 O             1 RES     
    5259 O           43.7310   119.8350     3.3930 O             1 RES     
    5260 O           27.6680   135.9060     3.0870 O             1 RES     
    5261 O            0.4900   143.5340    10.0180 O             1 RES     
    5262 O           13.6420   135.4190     6.9260 O             1 RES     
    5263 O           12.7540   111.4440     2.6230 O             1 RES     
    5264 Si          12.9910   127.1330    10.9580 Si            1 RES     
    5265 Si          23.8630   145.8620    11.9930 Si            1 RES     
    5266 O           22.2970   148.3590     5.3120 O             1 RES     
    5267 Si          25.9610   105.2320     7.8690 Si            1 RES     
    5268 O           24.2940   101.8930     2.7680 O             1 RES     
    5269 O           16.4760   137.7040     4.3180 O             1 RES     
    5270 OS          22.5200   149.9330    12.4180 OS            1 RES     
    5271 O           38.9960   106.4630     3.1540 O             1 RES     
    5272 Si          10.7150   131.6810    12.0640 Si            1 RES     
    5273 O           34.5510   135.6090    12.8760 O             1 RES     
    5274 Si          40.2900   117.2020     6.6710 Si            1 RES     
    5275 O            0.1750   117.8730     2.5890 O             1 RES     
    5276 O           44.9450   125.3230     1.8730 O             1 RES     
    5277 O           25.4540   116.6890     4.0590 O             1 RES     
    5278 O           21.2320   141.1290     3.7910 O             1 RES     
    5279 O           47.9910   120.1320     7.5240 O             1 RES     
    5280 O           28.9260   101.4310     7.6320 O             1 RES     
    5281 Si          24.1400   106.9550     9.6920 Si            1 RES     
    5282 Si          10.0460   145.8610    12.3140 Si            1 RES     
    5283 O           19.5920   146.6460     7.8140 O             1 RES     
    5284 O           49.2820   113.9790     6.4470 O             1 RES     
    5285 Si          32.7610   130.8370     8.0090 Si            1 RES     
    5286 OS          36.0280   119.1090    11.6440 OS            1 RES     
    5287 O           25.9280   136.2850     9.9660 O             1 RES     
    5288 O           16.9410   101.5030    13.9450 O             1 RES     
    5289 Si           8.0890   109.1650     3.4690 Si            1 RES     
    5290 O            7.4840   143.0870     8.6110 O             1 RES     
    5291 O            1.1320   127.7500     4.4110 O             1 RES     
    5292 Si          41.8280   148.1740     7.9800 Si            1 RES     
    5293 Si          38.2600   109.3290     6.6120 Si            1 RES     
    5294 O           40.4440   145.0910    11.7210 O             1 RES     
    5295 O           22.1720   128.9880    12.0870 O             1 RES     
    5296 O           22.5850   142.3680     5.5940 O             1 RES     
    5297 O            6.3640   100.9860    13.3560 O             1 RES     
    5298 O           21.1010   118.6210     4.3820 O             1 RES     
    5299 O           28.6020   125.5380    10.9880 O             1 RES     
    5300 Si          45.1290   116.0420     5.8950 Si            1 RES     
    5301 O           48.0560   145.4530    12.2910 O             1 RES     
    5302 O           14.1680   124.4350     1.8690 O             1 RES     
    5303 O           13.8490   113.9900     5.4690 O             1 RES     
    5304 Si          41.6930   122.5180     5.2840 Si            1 RES     
    5305 O            7.7250   110.1780     9.7690 O             1 RES     
    5306 O           15.1780   141.4640     6.7210 O             1 RES     
    5307 O            0.5540   124.3760     6.7230 O             1 RES     
    5308 Si          38.2510   139.6490    11.1770 Si            1 RES     
    5309 O           13.2470   104.9020     3.6700 O             1 RES     
    5310 O           37.0490   108.3670     5.3170 O             1 RES     
    5311 O           18.5340   109.5700     4.7320 O             1 RES     
    5312 O           28.1010   107.5450     8.9600 O             1 RES     
    5313 O            4.4450   149.1510     3.9220 O             1 RES     
    5314 Si          34.1500   100.2340     6.9910 Si            1 RES     
    5315 O           28.9690   100.5530     5.4100 O             1 RES     
    5316 O           25.2910   145.2430    11.4690 O             1 RES     
    5317 OS          48.5810   100.0460    12.8100 OS            1 RES     
    5318 O            9.1010   141.7060     7.7430 O             1 RES     
    5319 OS          48.7460   116.5420    13.5350 OS            1 RES     
    5320 O            2.8580   131.2520    11.5010 O             1 RES     
    5321 O           28.9490   132.9340     4.0500 O             1 RES     
    5322 Si          46.1820   113.6870    12.6920 Si            1 RES     
    5323 O           22.4060   127.0210     4.5720 O             1 RES     
    5324 O           32.4200   122.4380     3.8130 O             1 RES     
    5325 Si          19.3320   137.9810     7.2560 Si            1 RES     
    5326 OS          13.0730   133.9140    13.3170 OS            1 RES     
    5327 OS           1.1850   149.5760    12.8470 OS            1 RES     
    5328 Si          23.2730   136.9670    11.8210 Si            1 RES     
    5329 O           25.0460   137.2640     7.3890 O             1 RES     
    5330 O           14.9480   119.2350     6.0250 O             1 RES     
    5331 O           20.8760   130.5270     2.4170 O             1 RES     
    5332 Si          47.2880   148.5670     9.7450 Si            1 RES     
    5333 Si          39.1580   105.4970    12.3780 Si            1 RES     
    5334 O            6.1050   135.7080     4.4190 O             1 RES     
    5335 OS          36.5980   102.3970    12.3880 OS            1 RES     
    5336 Si          15.4760   120.6070     6.7620 Si            1 RES     
    5337 O           14.5900   133.3570    11.3350 O             1 RES     
    5338 Si          17.0470   100.9500    12.4370 Si            1 RES     
    5339 O            2.3170   107.2640     8.3850 O             1 RES     
    5340 O            9.0200   136.3940     7.3610 O             1 RES     
    5341 OS           0.4130   136.1710    11.9020 OS            1 RES     
    5342 O            7.3160   117.2230    10.7510 O             1 RES     
    5343 O           48.3180   149.4250     8.8890 O             1 RES     
    5344 Si          46.3050   107.2390    11.5810 Si            1 RES     
    5345 Si           0.9870   122.4530    12.7220 Si            1 RES     
    5346 O           12.0960   109.1050     6.9030 O             1 RES     
    5347 Si          34.7290   119.2200    10.7460 Si            1 RES     
    5348 O            9.8690   136.6850     4.6570 O             1 RES     
    5349 O           41.9290   117.3280     6.3350 O             1 RES     
    5350 O            9.4350   146.6280     4.5100 O             1 RES     
    5351 O           40.4240   108.4670     2.8820 O             1 RES     
    5352 Si          26.2590   107.5200    11.9100 Si            1 RES     
    5353 O           32.8230   146.4750     9.3520 O             1 RES     
    5354 Si           6.6160   122.6860     3.5980 Si            1 RES     
    5355 O           27.6590   126.8770     8.9330 O             1 RES     
    5356 Si          15.6720   143.1520     3.8470 Si            1 RES     
    5357 O           44.8030   125.8370     6.1180 O             1 RES     
    5358 O           12.3800   100.3960     4.1410 O             1 RES     
    5359 O           89.3280    24.2340     3.1580 O             1 RES     
    5360 O           58.4580    48.5390     6.1960 O             1 RES     
    5361 O           59.9370    34.3450     9.7080 O             1 RES     
    5362 O           77.9310    20.9500     2.9650 O             1 RES     
    5363 Si          84.0510    21.9090     6.4800 Si            1 RES     
    5364 O           81.4160    17.1410     7.9150 O             1 RES     
    5365 O           57.4230    25.4710     6.7820 O             1 RES     
    5366 O           97.1120     3.1090     5.5400 O             1 RES     
    5367 O           82.8980     7.8050     9.9470 O             1 RES     
    5368 Si          88.7810    11.9610     4.5220 Si            1 RES     
    5369 O           78.2200     7.4620    11.4690 O             1 RES     
    5370 O           91.5420    22.2820     9.1930 O             1 RES     
    5371 Si          51.2140    26.3900     3.6200 Si            1 RES     
    5372 O           82.1660    42.1050     9.0280 O             1 RES     
    5373 O           76.2930    46.3710     7.6460 O             1 RES     
    5374 O           67.5360    25.3840     7.5700 O             1 RES     
    5375 O           95.4190    33.1370    12.1080 O             1 RES     
    5376 Si          87.4340     4.1390     8.1680 Si            1 RES     
    5377 O           85.4360    32.8570     8.7280 O             1 RES     
    5378 O           73.7070    24.5910     4.9950 O             1 RES     
    5379 O           59.6650    31.9680     5.7910 O             1 RES     
    5380 Si          95.4860    22.8860    10.2000 Si            1 RES     
    5381 Si          69.9930    18.2280    12.3350 Si            1 RES     
    5382 O           74.5250    30.7410     7.9630 O             1 RES     
    5383 O           82.6640    41.9310    11.4990 O             1 RES     
    5384 O           56.5590    27.3500     5.0100 O             1 RES     
    5385 Si          58.9520    33.0600     4.9870 Si            1 RES     
    5386 O           90.1130    25.9410     9.7650 O             1 RES     
    5387 O           70.6210    37.5380     6.4480 O             1 RES     
    5388 Si          74.6920    29.4830     6.9840 Si            1 RES     
    5389 Si          69.3940    15.7420     5.6330 Si            1 RES     
    5390 O           79.8760    11.7970     6.2890 O             1 RES     
    5391 O           87.9360    30.6050     3.1040 O             1 RES     
    5392 O           99.3000    43.1650     4.7740 O             1 RES     
    5393 O           99.2410    15.4300     8.7790 O             1 RES     
    5394 Si          66.0040    25.6960     7.5250 Si            1 RES     
    5395 O           60.2360     3.4110     9.6970 O             1 RES     
    5396 O           93.4210    28.2730     6.3950 O             1 RES     
    5397 O           50.1870    40.6520     3.9740 O             1 RES     
    5398 O           61.9330    36.8760     3.0060 O             1 RES     
    5399 Si          93.8870     0.3740     7.3530 Si            1 RES     
    5400 O           73.3580    12.3080    11.7210 O             1 RES     
    5401 Si          75.3870    41.5760    12.4880 Si            1 RES     
    5402 O           96.0860    21.2950     7.0170 O             1 RES     
    5403 O           71.7340     6.6160     4.3500 O             1 RES     
    5404 O           73.6280    38.4180    11.4120 O             1 RES     
    5405 O           98.4240    30.3200     6.4430 O             1 RES     
    5406 O           64.8410    23.7240    11.1040 O             1 RES     
    5407 O           63.8720     7.7270     8.0010 O             1 RES     
    5408 O           92.9320    35.6550     5.0210 O             1 RES     
    5409 Si          64.9580    22.2990    11.7660 Si            1 RES     
    5410 Si          51.3660    23.9370     5.4410 Si            1 RES     
    5411 OS          67.8410    37.7820    13.0870 OS            1 RES     
    5412 O           52.1070    45.4170     9.4240 O             1 RES     
    5413 Si          73.7100    28.9220    12.3920 Si            1 RES     
    5414 O           88.9530    35.4330    11.0830 O             1 RES     
    5415 O           68.9750    37.1960     8.6150 O             1 RES     
    5416 O           70.4090    49.8920     4.6600 O             1 RES     
    5417 OS          95.0010    36.9310    13.7540 OS            1 RES     
    5418 O           96.3590    38.6730     9.4100 O             1 RES     
    5419 Si          80.3630    42.9570     3.6210 Si            1 RES     
    5420 O           72.5390     0.6400     1.6870 O             1 RES     
    5421 Si          97.8950    43.8810     5.0840 Si            1 RES     
    5422 O           71.7380    45.4450     8.6830 O             1 RES     
    5423 O           79.7260    34.7920    11.3840 O             1 RES     
    5424 O           78.0750     5.0820    10.5820 O             1 RES     
    5425 Si          74.9300    47.1050     7.6980 Si            1 RES     
    5426 O           99.2420    47.3080     4.1190 O             1 RES     
    5427 O           92.6700    39.8890    13.3630 O             1 RES     
    5428 O           80.4550     7.1310    10.0400 O             1 RES     
    5429 Si          73.1700     7.2460     4.4180 Si            1 RES     
    5430 O           72.6910    40.0080     9.8390 O             1 RES     
    5431 O           59.2430    34.4260     5.6130 O             1 RES     
    5432 Si          85.9510    45.0840     7.4200 Si            1 RES     
    5433 O           63.0020    14.6690    10.0680 O             1 RES     
    5434 Si          72.3030    18.2180     3.4300 Si            1 RES     
    5435 O           88.6920    44.6600     9.9650 O             1 RES     
    5436 Si          55.3750    36.6310     5.4460 Si            1 RES     
    5437 O           81.6610     6.9240     7.6810 O             1 RES     
    5438 OS          52.1040    44.4950    11.9170 OS            1 RES     
    5439 OS          60.2660     3.2190    12.0870 OS            1 RES     
    5440 O           83.2710    37.6820     4.3090 O             1 RES     
    5441 O           52.5230    37.1640    12.4500 O             1 RES     
    5442 O           84.7990    41.8550    10.2240 O             1 RES     
    5443 Si          70.4020    45.1770     4.5950 Si            1 RES     
    5444 Si          80.0820    17.9670     7.9450 Si            1 RES     
    5445 O           80.5780    43.3520     7.2540 O             1 RES     
    5446 O           69.3900    32.4830    10.8440 O             1 RES     
    5447 O           88.7970    47.0110    10.9690 O             1 RES     
    5448 Si          89.4990    19.3740     8.7080 Si            1 RES     
    5449 O           92.9490    38.5760     2.4350 O             1 RES     
    5450 Si          53.8240    29.5800     7.9930 Si            1 RES     
    5451 O           87.3440     8.4030     7.9400 O             1 RES     
    5452 O           65.1020    37.0500     8.0510 O             1 RES     
    5453 O           59.6790     3.5510     2.8980 O             1 RES     
    5454 O           81.5790    43.9430     3.5960 O             1 RES     
    5455 Si          85.8900    12.3490     5.6510 Si            1 RES     
    5456 O           54.2640     9.0260     4.7800 O             1 RES     
    5457 O           94.0270    15.3980     4.9560 O             1 RES     
    5458 OS          88.3090    33.0360    11.9640 OS            1 RES     
    5459 Si          82.8510    29.5180    12.2650 Si            1 RES     
    5460 O           72.9350    41.4540     7.9210 O             1 RES     
    5461 O           80.0370    49.7050     3.3810 O             1 RES     
    5462 Si          53.5000    38.7530     4.4320 Si            1 RES     
    5463 O           88.2010    10.6540     7.5920 O             1 RES     
    5464 O           59.7210    44.1600     8.4230 O             1 RES     
    5465 O           88.4650    25.9060     8.1340 O             1 RES     
    5466 O           56.0940    16.2190     8.6880 O             1 RES     
    5467 OS          91.3560    36.3370    10.0850 OS            1 RES     
    5468 Si          65.1630    35.7140     7.3010 Si            1 RES     
    5469 OS          57.6490    16.0520    13.1470 OS            1 RES     
    5470 O           81.1850     7.8320     5.0870 O             1 RES     
    5471 O           74.1550    46.1000     8.5750 O             1 RES     
    5472 O           58.2810     6.0230    12.1260 O             1 RES     
    5473 O           95.3310    24.4320     9.8760 O             1 RES     
    5474 Si          75.6960    37.4590     8.8510 Si            1 RES     
    5475 O           52.2070    13.1450    12.8520 O             1 RES     
    5476 O           99.6470    15.8970     1.3740 O             1 RES     
    5477 Si          65.9380    32.7240     8.1010 Si            1 RES     
    5478 Si          57.5200    44.1720    12.3700 Si            1 RES     
    5479 O           80.4440    23.0700     5.2210 O             1 RES     
    5480 O           96.7050    47.7370     5.0130 O             1 RES     
    5481 O           61.4490     7.4630     8.7760 O             1 RES     
    5482 Si          73.7950     1.6760     6.8390 Si            1 RES     
    5483 O           52.8600    30.0720     9.2260 O             1 RES     
    5484 Si          71.9800    30.9280     3.3940 Si            1 RES     
    5485 O           74.3500    18.9630     7.6670 O             1 RES     
    5486 O           58.7010    16.3040     2.2870 O             1 RES     
    5487 Si          72.5320    25.0840     4.1390 Si            1 RES     
    5488 O           53.2820     9.1310    10.0050 O             1 RES     
    5489 Si          68.5560    33.6670    11.4620 Si            1 RES     
    5490 O           89.1110    21.6780     2.3750 O             1 RES     
    5491 O           67.6690    29.6720     7.1160 O             1 RES     
    5492 Si          70.2150     6.4960     4.7090 Si            1 RES     
    5493 Si          76.0590    40.8180     5.8490 Si            1 RES     
    5494 O           78.9650    38.7850    10.2090 O             1 RES     
    5495 O           90.1500    16.6990     2.3940 O             1 RES     
    5496 Si          99.4280     0.5340     8.6050 Si            1 RES     
    5497 O           54.7720    21.7590     6.4550 O             1 RES     
    5498 O           74.2530    33.2980     7.8670 O             1 RES     
    5499 Si          60.7020    30.7490     6.1000 Si            1 RES     
    5500 O           92.6700     5.6730     5.2900 O             1 RES     
    5501 Si          64.2700    49.9640    11.6860 Si            1 RES     
    5502 O           56.6100    21.1300    10.0300 O             1 RES     
    5503 O           99.4510    11.8250    10.8060 O             1 RES     
    5504 O           91.1260    13.8420     9.8870 O             1 RES     
    5505 O           95.6810    15.0260     7.0230 O             1 RES     
    5506 O           96.7460    26.3010     8.8480 O             1 RES     
    5507 O           77.8520    30.1570     5.1630 O             1 RES     
    5508 O           64.0080    16.7380     5.3380 O             1 RES     
    5509 O           77.0560    41.8310     1.9940 O             1 RES     
    5510 Si          63.3490    24.6240     3.2190 Si            1 RES     
    5511 O           75.9020    34.8710     4.4290 O             1 RES     
    5512 O           70.1230     4.8830     4.5910 O             1 RES     
    5513 O           84.1470    15.1210    11.3000 O             1 RES     
    5514 Si          51.3730    22.1510     2.9220 Si            1 RES     
    5515 O           99.7900    25.9860     3.1710 O             1 RES     
    5516 O           82.2150    27.3290     8.7490 O             1 RES     
    5517 O           92.4190    13.5680     5.7240 O             1 RES     
    5518 O           87.2140     5.2770     9.2580 O             1 RES     
    5519 O           90.9980    23.4960     1.5910 O             1 RES     
    5520 OS          50.6460    27.9250    13.3760 OS            1 RES     
    5521 Si          50.8110    19.1590     9.6580 Si            1 RES     
    5522 O           80.5330    18.1760     4.0030 O             1 RES     
    5523 O           91.9850    33.4010     8.8860 O             1 RES     
    5524 OS          56.9590    38.8170    12.1150 OS            1 RES     
    5525 O           73.5630    28.8290     6.0310 O             1 RES     
    5526 Si          86.8960     6.1620    10.4730 Si            1 RES     
    5527 OS          80.9060    42.8970    12.8760 OS            1 RES     
    5528 O           72.3450    33.7720    10.4280 O             1 RES     
    5529 Si          88.7720    49.4470     3.8340 Si            1 RES     
    5530 Si          70.6320    28.6790    11.6590 Si            1 RES     
    5531 O           79.1060     9.9070     8.0490 O             1 RES     
    5532 O           54.3300    16.1090     6.8260 O             1 RES     
    5533 Si          96.1970     8.4660     8.6420 Si            1 RES     
    5534 O           81.4770    20.9200    10.3250 O             1 RES     
    5535 O           73.6740    13.7090     7.1970 O             1 RES     
    5536 O           75.7850    16.0530    11.2930 O             1 RES     
    5537 Si          75.0720     2.0650    11.2810 Si            1 RES     
    5538 O           56.5130    12.3630    10.0980 O             1 RES     
    5539 O           81.2430    26.1310     6.4910 O             1 RES     
    5540 O           79.5560    43.4330     4.9100 O             1 RES     
    5541 O           55.5290    29.6980     4.5780 O             1 RES     
    5542 Si          62.1290    29.9390     9.9840 Si            1 RES     
    5543 Si          92.9810    42.5610    10.5600 Si            1 RES     
    5544 O           50.0220    14.5270     4.1100 O             1 RES     
    5545 O           77.5270     6.1070     3.8020 O             1 RES     
    5546 OS          62.7250     3.7090    12.4850 OS            1 RES     
    5547 Si          59.4180     2.8310    10.8570 Si            1 RES     
    5548 O           81.6600    36.1520    10.5500 O             1 RES     
    5549 Si          68.5290    31.0570     7.4200 Si            1 RES     
    5550 OS          72.9530    45.1110    10.9490 OS            1 RES     
    5551 O           97.5310    28.1790     7.5710 O             1 RES     
    5552 O           72.0970     2.9560     3.5790 O             1 RES     
    5553 O           73.9750    47.1680     6.4300 O             1 RES     
    5554 Si          85.6350     7.7970     5.0950 Si            1 RES     
    5555 Si          65.2560    25.1420    10.4270 Si            1 RES     
    5556 O           68.6580    35.0890    10.6360 O             1 RES     
    5557 O           70.2660    37.5690    13.8000 O             1 RES     
    5558 O           79.7200    18.0810    12.3670 O             1 RES     
    5559 O           76.0000    19.8770     4.2940 O             1 RES     
    5560 O           91.0400     2.2550     8.1180 O             1 RES     
    5561 Si          76.5050     9.2230     5.5330 Si            1 RES     
    5562 O           86.9120    40.4130    10.7990 O             1 RES     
    5563 O           70.7340    15.2520     4.9050 O             1 RES     
    5564 O           69.4960    18.3400    10.8120 O             1 RES     
    5565 O           72.9330     2.9620     7.0930 O             1 RES     
    5566 OS          96.3160    48.9330    13.3120 OS            1 RES     
    5567 O           75.5590    23.5770     6.4960 O             1 RES     
    5568 O           84.9440    48.6380    11.0810 O             1 RES     
    5569 Si          75.5740    19.7440    11.9030 Si            1 RES     
    5570 O           50.6750    30.5180    10.5840 O             1 RES     
    5571 Si          69.9420     6.1710     7.7720 Si            1 RES     
    5572 Si          73.1990    12.0790     3.8050 Si            1 RES     
    5573 O           80.8380     5.4450     5.9680 O             1 RES     
    5574 O           95.9100     7.5290     7.3860 O             1 RES     
    5575 Si          53.6840    12.8230    12.3480 Si            1 RES     
    5576 OS          68.8100    44.6700    12.2700 OS            1 RES     
    5577 Si          88.0060    11.3040     9.0220 Si            1 RES     
    5578 O           70.9740    36.1480     4.3800 O             1 RES     
    5579 O           83.5230    45.4890     2.9160 O             1 RES     
    5580 O           73.1790    31.3580     2.5010 O             1 RES     
    5581 Si          59.2410    45.5480     3.3790 Si            1 RES     
    5582 Si          84.3650     5.5360    12.3320 Si            1 RES     
    5583 Si          89.6160    25.8090     3.1450 Si            1 RES     
    5584 O           78.8550    16.9830     8.2740 O             1 RES     
    5585 Si          60.8730    25.4460     9.4090 Si            1 RES     
    5586 OS          52.9380    27.3670    13.5110 OS            1 RES     
    5587 OS          83.3940    45.2420    13.7960 OS            1 RES     
    5588 Si          95.8650    31.8970     2.7980 Si            1 RES     
    5589 O           93.3990     5.4610    10.9030 O             1 RES     
    5590 O           95.3100    32.5620     6.9560 O             1 RES     
    5591 O           71.8170    45.9040     5.1190 O             1 RES     
    5592 O           92.0710    47.7170     9.4400 O             1 RES     
    5593 Si          85.4420    32.0520     7.3890 Si            1 RES     
    5594 O           95.1310    14.1860     9.3770 O             1 RES     
    5595 O           63.7230     1.3210    12.2550 O             1 RES     
    5596 O           78.4180    12.2310     8.3410 O             1 RES     
    5597 O           98.1150     3.6560     3.2300 O             1 RES     
    5598 O           74.3630    21.2010     2.9820 O             1 RES     
    5599 Si          50.4750    39.2730     4.6870 Si            1 RES     
    5600 Si          99.8290    17.2240    12.6160 Si            1 RES     
    5601 O           61.8830    42.9360     5.5030 O             1 RES     
    5602 O           98.1000    18.5900     5.2710 O             1 RES     
    5603 Si          63.5760    45.1310     8.3190 Si            1 RES     
    5604 O           57.9420    29.6150     8.5510 O             1 RES     
    5605 O           69.4490    16.2870     9.2650 O             1 RES     
    5606 O           71.8720    33.0660     6.7000 O             1 RES     
    5607 Si          78.1680    32.5160     7.8900 Si            1 RES     
    5608 O           59.3260    14.7530     6.8240 O             1 RES     
    5609 Si          83.4080    23.7200     8.8770 Si            1 RES     
    5610 O           72.0920    20.6210     7.5910 O             1 RES     
    5611 O           53.4620     6.4040    10.5250 O             1 RES     
    5612 Si          87.3120    24.5400    11.4470 Si            1 RES     
    5613 O           76.2140    25.8960    11.8030 O             1 RES     
    5614 Si          89.0690    17.2800     3.3630 Si            1 RES     
    5615 O           88.6180    34.2620     4.5350 O             1 RES     
    5616 Si          87.6040    34.2130     3.3530 Si            1 RES     
    5617 O           50.7970    42.5890     7.7990 O             1 RES     
    5618 O           72.2110    13.2820     3.8790 O             1 RES     
    5619 O           53.3010    42.0190     7.2270 O             1 RES     
    5620 O           92.6960    40.5310     3.8590 O             1 RES     
    5621 Si          67.0000     5.1450     8.0970 Si            1 RES     
    5622 O           97.1890    25.8760     6.4000 O             1 RES     
    5623 O           92.6210    18.3830    10.7470 O             1 RES     
    5624 O           58.0760    15.1190     4.6190 O             1 RES     
    5625 Si          95.0950    38.4250    10.3500 Si            1 RES     
    5626 O           95.8150     0.0320     1.4580 O             1 RES     
    5627 Si          62.9980    31.8610     7.7030 Si            1 RES     
    5628 O           68.4430    18.7220     8.4660 O             1 RES     
    5629 O           74.4370    16.7460     6.5860 O             1 RES     
    5630 Si          64.9540    12.9100     6.0530 Si            1 RES     
    5631 O           64.9650    18.7910     9.9840 O             1 RES     
    5632 Si          74.7280    26.1950    11.4530 Si            1 RES     
    5633 O           97.3630    32.9210     8.3330 O             1 RES     
    5634 O           82.0960    16.7640    11.4900 O             1 RES     
    5635 O           84.8860    47.1780    12.9650 O             1 RES     
    5636 O           62.7500    15.3170     3.5650 O             1 RES     
    5637 O           85.1600    41.7720     5.1760 O             1 RES     
    5638 O           96.3020    43.3040     9.1230 O             1 RES     
    5639 O           71.4630    14.5980     8.6160 O             1 RES     
    5640 O           88.8250    47.9060     3.5560 O             1 RES     
    5641 O           83.4650     1.9990     3.7860 O             1 RES     
    5642 O           77.3030    14.6550     8.4230 O             1 RES     
    5643 O           74.3010    27.5890    11.8080 O             1 RES     
    5644 O           68.4060    47.3430    11.6440 O             1 RES     
    5645 O           56.4100    19.6400     5.3440 O             1 RES     
    5646 OS          59.7490    47.1610    13.2240 OS            1 RES     
    5647 Si          98.5780    19.7920     6.0330 Si            1 RES     
    5648 Si          63.2120     6.2720     4.4060 Si            1 RES     
    5649 Si          88.8670    43.7710     3.9090 Si            1 RES     
    5650 O           66.1730    35.9180     6.1790 O             1 RES     
    5651 Si          96.9800     2.9410     3.9820 Si            1 RES     
    5652 O           66.4210    48.9450     5.2640 O             1 RES     
    5653 Si          78.4320     0.9860     9.0180 Si            1 RES     
    5654 O           53.7910    19.2340    12.2220 O             1 RES     
    5655 Si          87.3810    14.3720     9.2660 Si            1 RES     
    5656 O           89.6090    17.1140     4.7570 O             1 RES     
    5657 O           68.9850    23.2030     4.9360 O             1 RES     
    5658 O           83.3830    29.5890     8.6530 O             1 RES     
    5659 Si          56.5040    34.3540     3.6440 Si            1 RES     
    5660 Si          71.8010    23.4750    10.1490 Si            1 RES     
    5661 O           82.1880     2.9370    11.0530 O             1 RES     
    5662 O           98.2850    37.1040     8.2830 O             1 RES     
    5663 O           91.0400     2.3510    12.7430 O             1 RES     
    5664 O           71.6560    15.2860     2.4880 O             1 RES     
    5665 Si          73.6110    42.4730     6.8000 Si            1 RES     
    5666 Si          89.1900    24.7630     8.9630 Si            1 RES     
    5667 OS          73.5860    47.4960    12.0860 OS            1 RES     
    5668 OS          85.6550    44.6830    12.9390 OS            1 RES     
    5669 O           88.8090    10.5150     5.0240 O             1 RES     
    5670 Si          57.5450    17.4300    12.2700 Si            1 RES     
    5671 O           61.9280    10.0130     4.3980 O             1 RES     
    5672 O           97.4460    12.9720    12.0550 O             1 RES     
    5673 O           66.4350     1.3450     6.4240 O             1 RES     
    5674 Si          60.3130    11.8920    10.4020 Si            1 RES     
    5675 OS          61.2070    32.3640    13.4470 OS            1 RES     
    5676 O           73.7810    46.8420     3.9060 O             1 RES     
    5677 OS          82.3080    40.5490    13.5250 OS            1 RES     
    5678 Si          64.6130    39.8490    10.8620 Si            1 RES     
    5679 Si          59.0190     4.2510     4.0900 Si            1 RES     
    5680 O           75.1120    14.6520     5.4390 O             1 RES     
    5681 Si          94.0140    36.7140     7.7550 Si            1 RES     
    5682 OS          98.1550    10.7840    12.7930 OS            1 RES     
    5683 OS          64.5800    10.1050    13.9600 OS            1 RES     
    5684 OS          80.2540    15.4520    12.2440 OS            1 RES     
    5685 O           65.1430    39.4530     9.4470 O             1 RES     
    5686 Si          76.1430     3.1790     5.5820 Si            1 RES     
    5687 O           50.4530     3.1480     6.2690 O             1 RES     
    5688 O           96.8350    49.3910    10.9860 O             1 RES     
    5689 O           54.0590    36.5990     8.4880 O             1 RES     
    5690 Si          71.9700    14.8470     4.0010 Si            1 RES     
    5691 Si          55.4830    21.8870    10.9520 Si            1 RES     
    5692 O           62.9610    16.0130    12.0790 O             1 RES     
    5693 Si          68.5110    45.7810    11.1700 Si            1 RES     
    5694 OS          76.1120     6.5300    13.1560 OS            1 RES     
    5695 O           78.9550    11.6580     3.8450 O             1 RES     
    5696 O           66.8570     4.4800     9.5660 O             1 RES     
    5697 O           62.2070    31.3180     6.4880 O             1 RES     
    5698 Si          53.6610    47.9890     3.2660 Si            1 RES     
    5699 O           52.3810    38.3960     9.2630 O             1 RES     
    5700 O           66.4770    43.0330     5.4360 O             1 RES     
    5701 O           58.4010    37.8400     9.9930 O             1 RES     
    5702 Si          85.2360    26.0960     9.8200 Si            1 RES     
    5703 O           91.6370    48.2940    12.0470 O             1 RES     
    5704 O           78.3920    45.5220     9.3080 O             1 RES     
    5705 Si          58.7650     9.9060     8.6400 Si            1 RES     
    5706 Si          81.1860    40.2060     4.6190 Si            1 RES     
    5707 O           83.9620     9.7730    11.3540 O             1 RES     
    5708 Si          79.9290    38.9810    11.4220 Si            1 RES     
    5709 O           96.4470    45.4640     8.5700 O             1 RES     
    5710 O           53.8460    49.6770    12.4230 O             1 RES     
    5711 O           61.9350    26.3070    10.1220 O             1 RES     
    5712 O           84.7310    37.0780     7.2970 O             1 RES     
    5713 O           59.9940    32.7270     3.7510 O             1 RES     
    5714 OS          95.7050    12.9940    13.9360 OS            1 RES     
    5715 Si          68.4620    19.7870     7.3990 Si            1 RES     
    5716 O           61.2240    35.5340     6.4810 O             1 RES     
    5717 O           93.9110    10.6470     6.2750 O             1 RES     
    5718 O           95.5200    36.9650     7.4450 O             1 RES     
    5719 O           92.3600    47.1630     6.9220 O             1 RES     
    5720 OS          71.7830    13.9840    12.3470 OS            1 RES     
    5721 Si          88.2540    43.6100     8.9210 Si            1 RES     
    5722 O           53.3950    11.3600    11.7150 O             1 RES     
    5723 Si          56.1610     4.5190     2.9570 Si            1 RES     
    5724 Si          85.9990     4.7990     5.4630 Si            1 RES     
    5725 O           90.4460     8.8940    11.2490 O             1 RES     
    5726 Si          86.3780     8.7640     9.1110 Si            1 RES     
    5727 Si          51.8180    27.6390    12.3530 Si            1 RES     
    5728 OS          97.8010    37.1470    12.8070 OS            1 RES     
    5729 OS          61.1920    45.1340    13.1630 OS            1 RES     
    5730 O           98.1120    47.4380    10.4120 O             1 RES     
    5731 O           89.5130    20.8610     8.2070 O             1 RES     
    5732 O           76.4280    34.1630    11.4740 O             1 RES     
    5733 Si          83.3770     3.5300     3.4640 Si            1 RES     
    5734 O           66.2090    28.5900     2.5190 O             1 RES     
    5735 O           86.1180    48.2970     8.6890 O             1 RES     
    5736 O           96.7490    17.9500     3.0500 O             1 RES     
    5737 O           91.6860    42.9810     6.6740 O             1 RES     
    5738 O           87.4760    12.5040     5.3120 O             1 RES     
    5739 Si          74.7900    13.2300     6.2040 Si            1 RES     
    5740 OS          88.1530     4.6200    13.3710 OS            1 RES     
    5741 O           59.6770    32.6350    11.3050 O             1 RES     
    5742 Si          83.9690    22.8690     3.4780 Si            1 RES     
    5743 O           93.9820    37.9620     9.3120 O             1 RES     
    5744 Si          62.2740    34.9140     7.4100 Si            1 RES     
    5745 O           75.0010    18.4920    11.1670 O             1 RES     
    5746 O           52.7600    24.2130    10.4020 O             1 RES     
    5747 O           92.9580    26.1660    11.8200 O             1 RES     
    5748 O           95.1440    14.4450    11.7480 O             1 RES     
    5749 Si          90.0110    39.8830     8.6920 Si            1 RES     
    5750 OS          54.8870    30.6080    12.7110 OS            1 RES     
    5751 O           86.7400    29.8300     5.2550 O             1 RES     
    5752 Si          66.6150    44.7830     8.8650 Si            1 RES     
    5753 O           64.1100    11.8590     9.6930 O             1 RES     
    5754 O           52.0850    44.1560     6.4310 O             1 RES     
    5755 Si          89.0470    45.4520    11.2560 Si            1 RES     
    5756 Si          96.1120    42.6170    10.5030 Si            1 RES     
    5757 Si          65.9470     2.3680     7.5480 Si            1 RES     
    5758 O           59.2800    23.5000     7.5290 O             1 RES     
    5759 OS          90.7000    34.4120    12.2590 OS            1 RES     
    5760 OS          87.3970    49.2820    10.3440 OS            1 RES     
    5761 O           77.2990     9.9210     4.3170 O             1 RES     
    5762 O           97.5000    17.2100     9.6140 O             1 RES     
    5763 O           60.7770    40.0520     8.7900 O             1 RES     
    5764 Si          74.9320    24.8970     5.9010 Si            1 RES     
    5765 Si          96.2280    36.8130    12.7060 Si            1 RES     
    5766 OS          67.5710     7.1020    13.6460 OS            1 RES     
    5767 O           53.9580    31.7320     3.9260 O             1 RES     
    5768 O           80.0340    48.1820     5.4990 O             1 RES     
    5769 Si          52.3960     0.3410    12.1610 Si            1 RES     
    5770 Si          51.3740    24.8670    10.7920 Si            1 RES     
    5771 O           82.8560    14.0160     5.4360 O             1 RES     
    5772 O           55.0360    32.8140    11.2680 O             1 RES     
    5773 O           54.3950     1.0660     5.6080 O             1 RES     
    5774 Si          61.4700    14.6680     9.6650 Si            1 RES     
    5775 O           95.4260    12.4360     7.7160 O             1 RES     
    5776 Si          89.5160    33.9090    11.3150 Si            1 RES     
    5777 O           92.7260    45.9040    11.9400 O             1 RES     
    5778 OS          71.7830     5.7500    13.3060 OS            1 RES     
    5779 O           53.4140    40.7410     9.3500 O             1 RES     
    5780 O           84.3490    32.3610     3.7950 O             1 RES     
    5781 O           66.5320    25.6030    11.2150 O             1 RES     
    5782 O           58.3430    40.2150     9.8420 O             1 RES     
    5783 O           54.0360    25.3720     8.7120 O             1 RES     
    5784 O           80.6800    45.8030     9.3590 O             1 RES     
    5785 O           60.0900    10.7120     6.1550 O             1 RES     
    5786 O           69.1940    17.1920     5.2050 O             1 RES     
    5787 O           87.1160    48.2080    12.3700 O             1 RES     
    5788 Si          61.3670    16.3290    12.1810 Si            1 RES     
    5789 O           85.5170    49.9290     1.5800 O             1 RES     
    5790 O           53.1960    13.4610     3.7560 O             1 RES     
    5791 O           54.0060    30.3250     6.5690 O             1 RES     
    5792 O           89.3020     0.3220     2.5230 O             1 RES     
    5793 Si          89.5480    34.3190     5.9030 Si            1 RES     
    5794 Si          69.5940    18.6870     4.7920 Si            1 RES     
    5795 OS          65.5400    11.8900    12.5810 OS            1 RES     
    5796 Si          53.2760    22.0430     6.8940 Si            1 RES     
    5797 O           54.7160    44.8320     2.2930 O             1 RES     
    5798 Si          66.4430     3.1290    10.4140 Si            1 RES     
    5799 O           84.7450    20.4650     6.8190 O             1 RES     
    5800 O           92.7410    49.4860     7.9210 O             1 RES     
    5801 O           59.6600    25.8890     8.2980 O             1 RES     
    5802 Si          64.1900    40.4600     5.9330 Si            1 RES     
    5803 O           52.1890     7.9920     5.7940 O             1 RES     
    5804 OS          66.4940    21.9160    12.0070 OS            1 RES     
    5805 OS          58.7360    23.7110    12.1360 OS            1 RES     
    5806 O           59.6740     3.0890     7.3500 O             1 RES     
    5807 Si          95.4850     2.3080     9.1260 Si            1 RES     
    5808 O           84.5530     1.7420     7.1130 O             1 RES     
    5809 Si          97.6950    46.8240     4.1620 Si            1 RES     
    5810 O           59.0940    31.8780     9.0570 O             1 RES     
    5811 O           82.8540    11.6640    10.2560 O             1 RES     
    5812 O           89.9370    12.6720     5.1830 O             1 RES     
    5813 O           92.7870     7.5880     3.9020 O             1 RES     
    5814 OS          91.5110    44.6970    13.8950 OS            1 RES     
    5815 Si          53.5110    26.4870     7.6910 Si            1 RES     
    5816 O           74.8100    40.6180     2.1530 O             1 RES     
    5817 O           78.0830    19.4000    14.1250 O             1 RES     
    5818 Si          95.3360    48.4560     5.2530 Si            1 RES     
    5819 O           65.0890    16.2570    10.7830 O             1 RES     
    5820 O           51.7470    25.2300     4.6450 O             1 RES     
    5821 O           70.2430    49.6870    11.9420 O             1 RES     
    5822 Si          51.9550    42.6290     6.7790 Si            1 RES     
    5823 Si          71.5380     3.5220     7.4470 Si            1 RES     
    5824 O           67.2980    45.0130    10.2930 O             1 RES     
    5825 O           64.1450    39.2150     6.8920 O             1 RES     
    5826 O           60.4990    19.3050     7.6740 O             1 RES     
    5827 Si          64.9070     7.2060     6.9330 Si            1 RES     
    5828 Si          78.6810    25.7310     9.3460 Si            1 RES     
    5829 O           85.3300    30.3750     2.9760 O             1 RES     
    5830 Si          58.6830    43.2050     7.6990 Si            1 RES     
    5831 O           64.0870    29.7210     3.3030 O             1 RES     
    5832 O           83.0820    22.8120    10.2330 O             1 RES     
    5833 O           97.5190    36.2220     3.8790 O             1 RES     
    5834 Si          78.5250     6.5820    10.1990 Si            1 RES     
    5835 Si          97.4500    17.4220     4.3660 Si            1 RES     
    5836 O           78.1610    15.8470     6.3670 O             1 RES     
    5837 OS          51.1650    22.8170    14.2730 OS            1 RES     
    5838 O           94.8110     0.9100     8.5730 O             1 RES     
    5839 O           68.5750    27.3960     6.6910 O             1 RES     
    5840 O           76.1090     3.3020     3.9990 O             1 RES     
    5841 Si          92.6060    34.7230     9.4340 Si            1 RES     
    5842 Si          95.3720    10.9610     7.0310 Si            1 RES     
    5843 O           72.5860    29.5690     3.9380 O             1 RES     
    5844 OS          96.9910     8.4630    12.3190 OS            1 RES     
    5845 Si          90.2970    31.3540     6.4800 Si            1 RES     
    5846 Si          56.0960    33.9830    10.8440 Si            1 RES     
    5847 O           62.7440    30.9830     8.8940 O             1 RES     
    5848 OS          96.1210     1.2430    12.8700 OS            1 RES     
    5849 O           76.2930    30.5420     3.2220 O             1 RES     
    5850 O           57.8820    24.5560     9.3200 O             1 RES     
    5851 O           77.0360    22.2950     8.3600 O             1 RES     
    5852 O           75.2950     0.7040    10.3780 O             1 RES     
    5853 Si          74.9280    17.5040     7.8380 Si            1 RES     
    5854 O           98.6180     4.1440    10.7340 O             1 RES     
    5855 O           75.6520    28.5460     7.8160 O             1 RES     
    5856 O           69.8470    24.9840     6.4890 O             1 RES     
    5857 Si          91.6370    12.8030    10.9200 Si            1 RES     
    5858 Si          85.3520     1.3890    12.1150 Si            1 RES     
    5859 Si          96.8970    37.7350     7.7620 Si            1 RES     
    5860 O           55.3780    35.8640     6.8210 O             1 RES     
    5861 O           95.1740    27.8150     2.8680 O             1 RES     
    5862 Si          93.8770    27.3760    11.5510 Si            1 RES     
    5863 Si          62.5270     8.5340     8.2720 Si            1 RES     
    5864 O           53.5620    28.0480     7.7900 O             1 RES     
    5865 O           55.2150    22.8920     2.7460 O             1 RES     
    5866 O           96.5290    22.0670     9.2400 O             1 RES     
    5867 Si          63.1480    15.3560     5.0550 Si            1 RES     
    5868 O           74.9450    29.7810    11.9010 O             1 RES     
    5869 O           50.0590    17.7840     9.3110 O             1 RES     
    5870 O           69.1170    13.8090     9.2550 O             1 RES     
    5871 O           54.0670    37.3420     4.9070 O             1 RES     
    5872 O           86.9140    10.2500     9.4460 O             1 RES     
    5873 O           85.5640     6.3480     5.5660 O             1 RES     
    5874 OS          79.1860    38.1350    12.6570 OS            1 RES     
    5875 Si          81.8730    37.3300     3.6020 Si            1 RES     
    5876 O           92.7740     3.8650     8.6890 O             1 RES     
    5877 O           86.2550    26.7060     8.7730 O             1 RES     
    5878 Si          64.0130    15.1700    11.1740 Si            1 RES     
    5879 OS          53.7870    16.7630    12.8830 OS            1 RES     
    5880 Si          98.5450     5.0490    12.0960 Si            1 RES     
    5881 O           90.6880    22.2130     4.0540 O             1 RES     
    5882 O           64.5790    32.1970     7.4600 O             1 RES     
    5883 O           90.8770    38.5600     8.8240 O             1 RES     
    5884 O           74.8340    43.0310     2.6420 O             1 RES     
    5885 Si          80.0510    19.2360     5.0320 Si            1 RES     
    5886 O           82.2550     8.4950     2.8570 O             1 RES     
    5887 O           95.1300    32.9420     1.8010 O             1 RES     
    5888 Si          56.2410    43.4290     9.5200 Si            1 RES     
    5889 Si          76.1320    27.2990     4.2450 Si            1 RES     
    5890 O           89.7030    43.2250     8.3650 O             1 RES     
    5891 O           58.5980    46.3720     2.2240 O             1 RES     
    5892 Si          84.6490     3.1510     7.7220 Si            1 RES     
    5893 O           65.1550    11.3100     5.9300 O             1 RES     
    5894 Si          55.3720    10.0700     4.4590 Si            1 RES     
    5895 O           92.3490     7.4910    12.1660 O             1 RES     
    5896 O           65.4210    40.4660    12.0290 O             1 RES     
    5897 O           55.0060     4.4480     4.0530 O             1 RES     
    5898 O           69.4280    45.2850     5.8050 O             1 RES     
    5899 O           94.4440    46.5930    10.0370 O             1 RES     
    5900 O           99.3310    32.3570     9.5320 O             1 RES     
    5901 O           80.1120    26.0840     8.9200 O             1 RES     
    5902 O           60.4160     1.0990     2.8170 O             1 RES     
    5903 O           55.6430    34.8800     9.6260 O             1 RES     
    5904 O           60.6130    29.6900     9.5080 O             1 RES     
    5905 O           88.9430    30.5190     6.3560 O             1 RES     
    5906 O           60.5100     8.1880     5.4640 O             1 RES     
    5907 O           68.0080    49.7870    12.4920 O             1 RES     
    5908 O           79.9750    18.5390     6.4630 O             1 RES     
    5909 Si          93.5010     6.3350    12.2980 Si            1 RES     
    5910 O           81.0460    33.8030     5.5130 O             1 RES     
    5911 O           58.9270    11.8520    11.1040 O             1 RES     
    5912 O           72.6540     0.6510     6.3860 O             1 RES     
    5913 O           95.1230    32.2190     9.7350 O             1 RES     
    5914 O           65.4250     8.6330     6.4840 O             1 RES     
    5915 O           74.3040    33.2740     3.2250 O             1 RES     
    5916 O           99.8890    13.0660     8.7600 O             1 RES     
    5917 Si          58.1590    11.0630     5.8820 Si            1 RES     
    5918 Si          59.7230     6.6800    12.0750 Si            1 RES     
    5919 Si          78.4790     8.4120     7.7260 Si            1 RES     
    5920 Si          50.5120     7.5370    12.0020 Si            1 RES     
    5921 O           59.6710     5.6550     4.5980 O             1 RES     
    5922 O           97.4550    13.8010     8.3070 O             1 RES     
    5923 O           68.8750    25.6890    11.5620 O             1 RES     
    5924 Si          59.6420    29.2860     3.6580 Si            1 RES     
    5925 O           56.7420    27.7270     7.4510 O             1 RES     
    5926 Si          57.3690    11.2960    10.8940 Si            1 RES     
    5927 Si          80.6730    32.5360     9.5370 Si            1 RES     
    5928 O           62.3410    33.3180     7.6750 O             1 RES     
    5929 Si          55.5320    36.0130     8.4250 Si            1 RES     
    5930 Si          73.0290    43.0570    11.1760 Si            1 RES     
    5931 Si          90.9590     8.1710     7.5530 Si            1 RES     
    5932 OS          69.6480    48.2890    13.7740 OS            1 RES     
    5933 O           84.4150    22.6970     5.0520 O             1 RES     
    5934 O           71.5930     3.0260     9.0560 O             1 RES     
    5935 Si          85.2580    14.0110    11.5060 Si            1 RES     
    5936 O           65.8700    32.0780     9.6110 O             1 RES     
    5937 O           77.1660    18.1990     2.9840 O             1 RES     
    5938 O           52.9420    29.6550     4.5650 O             1 RES     
    5939 Si          91.6730    43.7280     5.2710 Si            1 RES     
    5940 O           89.1920     0.5770     7.9150 O             1 RES     
    5941 O           62.7510    19.8360     9.1320 O             1 RES     
    5942 O           71.9460    42.2760    10.3200 O             1 RES     
    5943 O           64.1980    38.2730     2.9000 O             1 RES     
    5944 O           79.3360    32.1020     8.8840 O             1 RES     
    5945 O           99.7930    10.4860     8.6050 O             1 RES     
    5946 O           76.2920    12.6820     9.6340 O             1 RES     
    5947 O           59.8200    25.0990    10.5220 O             1 RES     
    5948 Si          77.4390    19.6000     3.5680 Si            1 RES     
    5949 O           56.6230    14.8530     6.6910 O             1 RES     
    5950 O           58.6230    49.0540    10.4420 O             1 RES     
    5951 O           94.8180    26.8060    10.4470 O             1 RES     
    5952 O           97.2400    46.8150     2.7000 O             1 RES     
    5953 O           84.5170    24.8560     9.2050 O             1 RES     
    5954 O           70.2360     9.1000    10.6340 O             1 RES     
    5955 Si          75.7150    41.7100     2.8710 Si            1 RES     
    5956 O           84.9960    19.4610     9.2060 O             1 RES     
    5957 Si          91.4990    19.5180    11.1150 Si            1 RES     
    5958 Si          65.2730    10.2900    12.5260 Si            1 RES     
    5959 O           86.2120    18.2560     7.4380 O             1 RES     
    5960 O           79.3970    36.5730     9.2700 O             1 RES     
    5961 O           55.0300    23.2810    10.2570 O             1 RES     
    5962 Si          50.3920    42.2210     4.1890 Si            1 RES     
    5963 O           52.2260    26.4020     2.4270 O             1 RES     
    5964 O           99.4230    18.8260    12.6940 O             1 RES     
    5965 O           77.1160    27.9850     5.1480 O             1 RES     
    5966 Si          58.2650    40.9430     4.4180 Si            1 RES     
    5967 O           91.1300    22.0980     6.6650 O             1 RES     
    5968 O           95.5570    31.9600     4.3400 O             1 RES     
    5969 O           50.1660    19.6860     6.1490 O             1 RES     
    5970 Si          83.2720     8.2920    11.3850 Si            1 RES     
    5971 O           72.7000     0.6170     4.0170 O             1 RES     
    5972 O           63.0960    47.7250     5.9260 O             1 RES     
    5973 Si          72.7790     1.7000     2.8520 Si            1 RES     
    5974 O           66.3630    13.3470     5.6630 O             1 RES     
    5975 O           80.9870    48.2450    10.0420 O             1 RES     
    5976 O           87.2390    49.7590     3.5030 O             1 RES     
    5977 Si          80.8900    16.7310     3.3720 Si            1 RES     
    5978 O           76.4990    44.3450     9.2110 O             1 RES     
    5979 O           99.2220    26.2600     7.9750 O             1 RES     
    5980 O           83.9070    31.6450     7.3760 O             1 RES     
    5981 O           93.4510    15.8270    10.1300 O             1 RES     
    5982 Si          96.0430    25.0580     5.6030 Si            1 RES     
    5983 O           51.8810    26.1950     7.7000 O             1 RES     
    5984 O           67.3560     2.2180    11.3970 O             1 RES     
    5985 O           57.1550    17.3080     4.0380 O             1 RES     
    5986 Si          92.4350    10.2010     5.9260 Si            1 RES     
    5987 Si          90.6900     3.0210    11.3890 Si            1 RES     
    5988 O           69.3480     0.7980     2.3270 O             1 RES     
    5989 O           69.9280    29.8800    10.9250 O             1 RES     
    5990 O           69.4570    20.9430     7.8900 O             1 RES     
    5991 O           60.7040    13.2600     9.7220 O             1 RES     
    5992 Si          50.4770     1.6020     5.9420 Si            1 RES     
    5993 O           59.4100     1.3120    10.7100 O             1 RES     
    5994 Si          68.7360    17.6360     9.5480 Si            1 RES     
    5995 O           55.7520    47.8330    12.9800 O             1 RES     
    5996 O           69.8340     7.1440     8.9810 O             1 RES     
    5997 Si          68.1230     8.5540     3.6600 Si            1 RES     
    5998 Si          58.9940    33.1040    10.0430 Si            1 RES     
    5999 O           85.6350    37.2760     4.9160 O             1 RES     
    6000 O           93.9320    30.7370     6.0400 O             1 RES     
    6001 Si          60.3410    36.8300     3.1460 Si            1 RES     
    6002 OS          80.0060    34.1070    13.8750 OS            1 RES     
    6003 OS          83.7480    33.1240    13.3250 OS            1 RES     
    6004 Si          57.3310    43.7630     4.9050 Si            1 RES     
    6005 O           62.4480    23.4040     3.5910 O             1 RES     
    6006 Si          61.1820    20.0760     8.8680 Si            1 RES     
    6007 O           82.3270    36.7830     2.1510 O             1 RES     
    6008 Si          76.8970    32.7770    12.0530 Si            1 RES     
    6009 O           81.1770    38.7570     3.8720 O             1 RES     
    6010 O           92.7610    36.9040     6.8720 O             1 RES     
    6011 O           50.1790    45.8030    11.0080 O             1 RES     
    6012 O           64.9690    39.8680     4.7060 O             1 RES     
    6013 O           59.7750    30.5060     2.5650 O             1 RES     
    6014 Si          76.2080    35.7160    11.4330 Si            1 RES     
    6015 O           83.8200     1.8110    12.2470 O             1 RES     
    6016 O           82.2410    24.6310     8.4590 O             1 RES     
    6017 O           94.9250     6.9980    12.2900 O             1 RES     
    6018 Si          60.0470     6.9750     9.0140 Si            1 RES     
    6019 O           54.9290    13.9990     8.3470 O             1 RES     
    6020 Si          73.0970    34.0080     6.9800 Si            1 RES     
    6021 O           85.3680    49.2480     6.6070 O             1 RES     
    6022 O           88.6330     3.1870     8.2330 O             1 RES     
    6023 O           59.6790    38.1050     2.4130 O             1 RES     
    6024 O           74.3640    25.9410     9.8980 O             1 RES     
    6025 Si          51.3860     4.4330     6.3760 Si            1 RES     
    6026 O           86.0720    25.4030    10.9870 O             1 RES     
    6027 Si          83.3970     0.4560     4.1020 Si            1 RES     
    6028 O           97.7770    45.4010     4.5940 O             1 RES     
    6029 O           99.6460     0.9140     7.0600 O             1 RES     
    6030 Si          99.7490    42.7510     8.8430 Si            1 RES     
    6031 O           71.0710     5.0660     7.7670 O             1 RES     
    6032 Si          67.6200     8.2770    12.5210 Si            1 RES     
    6033 O           73.8990     8.0890     8.4830 O             1 RES     
    6034 O           94.9940     6.8110     5.0230 O             1 RES     
    6035 O           88.3840    27.7090     9.6910 O             1 RES     
    6036 Si          52.3000    49.5910     9.1770 Si            1 RES     
    6037 O           61.0760    17.9080    12.0650 O             1 RES     
    6038 Si          52.4870    45.5200     5.7490 Si            1 RES     
    6039 O           55.1070    13.1130     2.0220 O             1 RES     
    6040 O           67.3130    17.3870    10.0950 O             1 RES     
    6041 O           88.8030    18.8680     3.1010 O             1 RES     
    6042 O           56.2230     5.3790     1.6200 O             1 RES     
    6043 O           83.8930    37.3990    11.2720 O             1 RES     
    6044 OS          85.5880    37.9490    13.8270 OS            1 RES     
    6045 OS          55.7350    22.1460    12.4840 OS            1 RES     
    6046 Si          80.0550    20.4620     9.8690 Si            1 RES     
    6047 O           56.6910    21.9270     4.9560 O             1 RES     
    6048 O           67.7340    21.6430     3.5230 O             1 RES     
    6049 O           69.7000    45.8050    10.1940 O             1 RES     
    6050 O           71.0350    10.2870     8.9720 O             1 RES     
    6051 Si          50.3040    11.6260     9.5100 Si            1 RES     
    6052 Si          97.8920    39.8850     5.9730 Si            1 RES     
    6053 Si          75.8660    44.0270    10.5700 Si            1 RES     
    6054 O           53.1940     0.0020     7.9500 O             1 RES     
    6055 O           83.6470    34.4260     4.8550 O             1 RES     
    6056 Si          80.7270    42.4020     8.4770 Si            1 RES     
    6057 Si          84.7700    37.8690     3.8180 Si            1 RES     
    6058 O           50.9940    10.8450     2.6310 O             1 RES     
    6059 O           79.2810    20.1280    11.1720 O             1 RES     
    6060 O           65.4150     7.7660     1.5950 O             1 RES     
    6061 O           68.3850    35.8390     4.7270 O             1 RES     
    6062 Si          95.2900    25.8680     9.3100 Si            1 RES     
    6063 Si          92.5050    22.3130    10.4510 Si            1 RES     
    6064 Si          65.7320    29.5360     3.7050 Si            1 RES     
    6065 Si          59.6690    47.8430     5.4930 Si            1 RES     
    6066 O           62.3740    48.9220     8.1810 O             1 RES     
    6067 O           74.6360     0.9360     7.9300 O             1 RES     
    6068 O           69.8080     3.0050     3.2320 O             1 RES     
    6069 O           85.4430     0.0010    12.9260 O             1 RES     
    6070 O           56.8130    27.9240     9.9120 O             1 RES     
    6071 O           86.6000    38.8690     6.7020 O             1 RES     
    6072 Si          60.1060    19.0830    11.7060 Si            1 RES     
    6073 O           69.5560    15.3870     7.1320 O             1 RES     
    6074 O           63.4780    47.4240     3.3610 O             1 RES     
    6075 OS          83.1620    11.7520    13.1050 OS            1 RES     
    6076 O           60.6930    26.6800     1.2410 O             1 RES     
    6077 O           72.8730    22.8310    11.1670 O             1 RES     
    6078 O           61.8470    21.1590     4.2940 O             1 RES     
    6079 Si          71.9760    12.3940    12.3550 Si            1 RES     
    6080 O           62.8560     9.6200     9.3420 O             1 RES     
    6081 Si          65.5080    38.7700     3.6850 Si            1 RES     
    6082 O           87.2780    42.6790     9.7680 O             1 RES     
    6083 O           58.5470    10.3990     4.4330 O             1 RES     
    6084 O           54.3780    46.6300     8.9120 O             1 RES     
    6085 O           79.9050    45.6210     6.1860 O             1 RES     
    6086 Si          83.6080    14.0500     6.7690 Si            1 RES     
    6087 O           67.7290    46.9900     5.8550 O             1 RES     
    6088 O           63.0630     2.0570     5.8520 O             1 RES     
    6089 O           64.9550    20.6690     8.2220 O             1 RES     
    6090 O           76.1070    41.4050     4.3750 O             1 RES     
    6091 O           76.7350    26.8440     2.9100 O             1 RES     
    6092 O           80.0560     2.9350     5.7890 O             1 RES     
    6093 O           95.2980    21.2120     4.8160 O             1 RES     
    6094 O           59.9770    10.8910     9.1250 O             1 RES     
    6095 Si          65.7720    32.3240    11.1840 Si            1 RES     
    6096 O           75.9570    32.4380     4.9530 O             1 RES     
    6097 O           99.6260    38.0500     4.0950 O             1 RES     
    6098 Si          77.7560    22.5190     3.0090 Si            1 RES     
    6099 O           56.1310    18.0340    12.6980 O             1 RES     
    6100 Si          79.6580    12.5070     4.9570 Si            1 RES     
    6101 Si          70.6900     3.4160     4.4270 Si            1 RES     
    6102 O           68.0140    37.6140     6.4480 O             1 RES     
    6103 Si          57.4400    49.6480     6.7860 Si            1 RES     
    6104 O           61.4600    42.1930     3.2080 O             1 RES     
    6105 O           57.4840    42.2850     4.2520 O             1 RES     
    6106 O           70.4090    41.3470     8.5420 O             1 RES     
    6107 O           77.7690    15.8050     3.7780 O             1 RES     
    6108 O           70.8050    22.5490     6.6200 O             1 RES     
    6109 O           97.1940     9.1690     3.9050 O             1 RES     
    6110 OS          93.1990    32.2580    11.8910 OS            1 RES     
    6111 OS          52.5250     1.7930    12.7490 OS            1 RES     
    6112 O           65.8720    31.1240     3.5680 O             1 RES     
    6113 O           74.6860     5.7720     8.6550 O             1 RES     
    6114 Si          53.3320    17.0320     2.8190 Si            1 RES     
    6115 O           96.1960    19.5610     9.2260 O             1 RES     
    6116 O           54.2990    11.6510     9.3740 O             1 RES     
    6117 Si          93.9040    20.4480     4.8120 Si            1 RES     
    6118 O           74.8680    35.8760    12.2940 O             1 RES     
    6119 O           73.6580    18.9010     3.6840 O             1 RES     
    6120 Si          64.1220    37.2970    12.4430 Si            1 RES     
    6121 Si          98.3240     3.2150     9.4960 Si            1 RES     
    6122 O           58.7600    45.0380    12.2370 O             1 RES     
    6123 Si          85.3480    34.2110     9.5120 Si            1 RES     
    6124 Si          97.0210     0.0510    12.4420 Si            1 RES     
    6125 O           69.9310    33.8980     5.2210 O             1 RES     
    6126 O           57.6010    34.5360     2.5650 O             1 RES     
    6127 O           65.1770    44.2300     2.7320 O             1 RES     
    6128 O           91.9330    37.9030     4.7360 O             1 RES     
    6129 Si          56.2890    17.4690     9.5750 Si            1 RES     
    6130 OS          75.4360    11.1810    11.7760 OS            1 RES     
    6131 O           60.2860     1.4390     5.2360 O             1 RES     
    6132 O           73.4720    43.8750     7.4750 O             1 RES     
    6133 O           56.0160    44.9060     9.1190 O             1 RES     
    6134 Si          62.5860     9.9290     3.0050 Si            1 RES     
    6135 O           52.3750    15.4810     5.2860 O             1 RES     
    6136 O           77.3190    29.2610    12.4900 O             1 RES     
    6137 Si          55.0570    13.0090     9.6470 Si            1 RES     
    6138 O           68.5420     5.3050     7.9260 O             1 RES     
    6139 O           98.6410    43.7890     8.4790 O             1 RES     
    6140 O           61.8310    30.9040    11.1600 O             1 RES     
    6141 O           85.0670    13.4710     6.3520 O             1 RES     
    6142 Si          92.0050    38.9920     3.5840 Si            1 RES     
    6143 O           58.0640    40.0100     3.0870 O             1 RES     
    6144 Si          78.7100    37.9400     8.8920 Si            1 RES     
    6145 Si          51.4570     7.3840     7.0950 Si            1 RES     
    6146 O           69.5950    31.6930     6.4870 O             1 RES     
    6147 Si          70.2910    10.6330    10.3250 Si            1 RES     
    6148 O           99.4830     9.5720     4.3120 O             1 RES     
    6149 Si          99.2360    30.9390    10.2300 Si            1 RES     
    6150 O           79.8460    41.2250     8.0550 O             1 RES     
    6151 Si          69.0220    25.9820     7.4110 Si            1 RES     
    6152 O           73.4690    13.3370     9.5400 O             1 RES     
    6153 Si          73.9240    24.9980     8.7160 Si            1 RES     
    6154 OS          83.2710    37.9530    13.2690 OS            1 RES     
    6155 OS          72.4530    21.1830    13.0020 OS            1 RES     
    6156 O           75.8540    25.8150     5.0220 O             1 RES     
    6157 O           90.4720    31.4740     8.0220 O             1 RES     
    6158 Si          99.0790     9.2880     7.9830 Si            1 RES     
    6159 OS          56.2560     6.2770    13.5190 OS            1 RES     
    6160 Si          84.2060    40.7980     4.4520 Si            1 RES     
    6161 O           88.6100    37.7160     3.1690 O             1 RES     
    6162 Si          57.0770    20.2490     8.8390 Si            1 RES     
    6163 Si          98.9090    46.5840    11.4290 Si            1 RES     
    6164 O           88.3370    26.5730     2.7100 O             1 RES     
    6165 Si          84.5520     9.9310     7.0270 Si            1 RES     
    6166 Si          70.0360    31.2220    10.1190 Si            1 RES     
    6167 O           52.8930    22.2920     2.5400 O             1 RES     
    6168 Si          77.6670    16.0710     7.8400 Si            1 RES     
    6169 O           78.8060    13.8260     5.0430 O             1 RES     
    6170 Si          74.8180    12.7050    10.9700 Si            1 RES     
    6171 Si          98.9160    33.1910     8.2340 Si            1 RES     
    6172 Si          69.3220    38.0950    12.5930 Si            1 RES     
    6173 Si          51.9380    35.8990    11.6940 Si            1 RES     
    6174 O           95.7460    37.2740    11.2740 O             1 RES     
    6175 O           59.6630    30.5690    12.2770 O             1 RES     
    6176 Si          69.9030    14.9890     8.5670 Si            1 RES     
    6177 O           75.7710     4.4830     6.4720 O             1 RES     
    6178 O           98.9850    32.2290     4.6010 O             1 RES     
    6179 Si          87.7750    39.8480     6.4840 Si            1 RES     
    6180 O           58.1810     1.0180     6.6000 O             1 RES     
    6181 O           57.9860     9.8280     2.0970 O             1 RES     
    6182 Si          79.5330    33.3360     5.4390 Si            1 RES     
    6183 O           96.2350    23.4670     5.7550 O             1 RES     
    6184 Si          67.2150    28.3100     6.4770 Si            1 RES     
    6185 O           73.2530     7.7300     5.9480 O             1 RES     
    6186 O           70.2230    41.7250     6.0320 O             1 RES     
    6187 Si          64.1060     2.9270    12.3560 Si            1 RES     
    6188 O           69.4250    26.0820     8.9530 O             1 RES     
    6189 Si          57.2080    48.9900     9.7760 Si            1 RES     
    6190 O           63.0180    37.7460    13.3970 O             1 RES     
    6191 Si          99.0280    16.6680     9.7360 Si            1 RES     
    6192 O           88.7140    39.7180     7.7470 O             1 RES     
    6193 Si          80.7840    46.8420     5.9520 Si            1 RES     
    6194 O           60.4830    29.8580     4.8470 O             1 RES     
    6195 O           93.3200    41.9460     1.6670 O             1 RES     
    6196 Si          68.2410    12.9120    10.1490 Si            1 RES     
    6197 O           60.7840    43.1810    10.3760 O             1 RES     
    6198 O           92.2450    42.8690     9.2390 O             1 RES     
    6199 Si          78.5000    22.7930     8.3570 Si            1 RES     
    6200 O           54.2370    21.0310    10.8790 O             1 RES     
    6201 O           81.8450     8.4730    11.9550 O             1 RES     
    6202 O           94.0220    22.2570     9.9290 O             1 RES     
    6203 Si          89.1410    49.3650     6.8780 Si            1 RES     
    6204 OS          60.8590    15.6080    13.4570 OS            1 RES     
    6205 Si          55.3790     0.2450     4.5480 Si            1 RES     
    6206 O           58.0870    10.3600     7.2540 O             1 RES     
    6207 O           79.9120    43.3700     9.5960 O             1 RES     
    6208 Si          93.3470    17.3420     9.7490 Si            1 RES     
    6209 O           71.2180    38.5560     4.1250 O             1 RES     
    6210 Si          96.2780    18.2610    10.0530 Si            1 RES     
    6211 O           69.3690    39.5920     7.2420 O             1 RES     
    6212 O           97.3990    13.5140     4.6950 O             1 RES     
    6213 Si          79.8150    33.5000    12.2720 Si            1 RES     
    6214 O           79.7090     4.6080     3.9520 O             1 RES     
    6215 O           74.4790     6.5760     3.9720 O             1 RES     
    6216 Si          95.4830     0.4720     2.9760 Si            1 RES     
    6217 O           92.9600    21.7040     4.9030 O             1 RES     
    6218 O           61.2310    19.0010     2.7990 O             1 RES     
    6219 Si          80.8700     8.1510     3.5780 Si            1 RES     
    6220 Si          60.7240    44.5390     9.5680 Si            1 RES     
    6221 O           94.5910     3.2770    10.0920 O             1 RES     
    6222 OS          90.6880    12.9890    12.1640 OS            1 RES     
    6223 O           73.7620    34.0750     5.5450 O             1 RES     
    6224 O           78.5770    19.4320     4.6810 O             1 RES     
    6225 Si          98.8450    32.4750     3.0400 Si            1 RES     
    6226 O           52.2640    28.7650    11.3580 O             1 RES     
    6227 O           58.7090    18.4050    12.0580 O             1 RES     
    6228 Si          86.6600    29.8290     3.7120 Si            1 RES     
    6229 O           74.6190    21.3980     7.7070 O             1 RES     
    6230 Si          89.7760    27.3710    10.4760 Si            1 RES     
    6231 OS          98.4250    30.9370    11.5870 OS            1 RES     
    6232 O           86.1050     3.2680     8.2910 O             1 RES     
    6233 O           62.4430     1.3040     8.2790 O             1 RES     
    6234 Si          83.4360    16.4340    10.8380 Si            1 RES     
    6235 Si          80.7530     4.1730     5.0870 Si            1 RES     
    6236 O           56.1070    38.0600     5.8620 O             1 RES     
    6237 O           88.6680    36.4770     8.9480 O             1 RES     
    6238 Si          61.1630     9.6020     5.7720 Si            1 RES     
    6239 Si          90.3730    14.4940     8.7190 Si            1 RES     
    6240 O           99.6810    32.3530     7.0340 O             1 RES     
    6241 O           64.2170    22.5440    13.1760 O             1 RES     
    6242 O           83.6960    15.5260     7.1440 O             1 RES     
    6243 O           84.6540    49.6130     3.8450 O             1 RES     
    6244 O           50.6790    30.3410     5.3820 O             1 RES     
    6245 Si          69.0850    48.6460    12.2470 Si            1 RES     
    6246 Si          72.1510     2.9900    10.5480 Si            1 RES     
    6247 O           84.7300    36.8210     2.4400 O             1 RES     
    6248 O           52.4910    18.3390     2.9200 O             1 RES     
    6249 Si          96.3210    41.5570     3.9180 Si            1 RES     
    6250 O           85.5150    12.7300     1.6720 O             1 RES     
    6251 O           70.6750    35.7400     9.5880 O             1 RES     
    6252 O           94.1660    26.3470     8.2340 O             1 RES     
    6253 Si          50.5010    25.4290     7.9210 Si            1 RES     
    6254 O           75.2210    39.4880     5.9300 O             1 RES     
    6255 OS          96.3090    35.2350    12.6710 OS            1 RES     
    6256 O           69.1550     7.3510     3.9290 O             1 RES     
    6257 O           74.3180    25.4750     7.2570 O             1 RES     
    6258 O           94.5330    42.4470    10.6150 O             1 RES     
    6259 O           82.8890    37.2560     8.9580 O             1 RES     
    6260 OS          51.4300     7.6250    13.2710 OS            1 RES     
    6261 Si          60.0770    18.5520     6.3800 Si            1 RES     
    6262 Si          65.4110    12.2030     8.9330 Si            1 RES     
    6263 Si          73.5250    22.0570    12.3530 Si            1 RES     
    6264 O           82.6580    29.0700    10.7970 O             1 RES     
    6265 O           68.9780    11.5120    10.0640 O             1 RES     
    6266 OS          75.6930    19.3670    13.4870 OS            1 RES     
    6267 O           92.1530     9.8200     4.4030 O             1 RES     
    6268 OS          81.5440    17.1520    13.7880 OS            1 RES     
    6269 O           68.3820     7.7760    11.1990 O             1 RES     
    6270 Si          69.9120    25.9010    10.4390 Si            1 RES     
    6271 Si          71.2670    39.6860     3.0300 Si            1 RES     
    6272 O           60.3610    44.5950     2.8460 O             1 RES     
    6273 O           69.7400    45.9700     3.4200 O             1 RES     
    6274 Si          68.8430    10.6020     5.8770 Si            1 RES     
    6275 O           61.3070    24.0840     8.6510 O             1 RES     
    6276 OS          71.1670     1.4560    13.9310 OS            1 RES     
    6277 O           58.0970    29.2030     4.1690 O             1 RES     
    6278 O           83.8360    10.8010     2.9710 O             1 RES     
    6279 O           51.1100    20.6060     3.1090 O             1 RES     
    6280 Si          96.7980    20.7630     8.3390 Si            1 RES     
    6281 O           62.9400    38.4750     8.8170 O             1 RES     
    6282 Si          79.6600    44.8580    10.0510 Si            1 RES     
    6283 O           61.2120    15.4640     8.3510 O             1 RES     
    6284 Si          89.6190     2.0610     8.6460 Si            1 RES     
    6285 OS          69.3910    39.6610    12.7410 OS            1 RES     
    6286 O           97.5620     7.4470     5.5700 O             1 RES     
    6287 Si          89.2700    36.7440    10.3940 Si            1 RES     
    6288 O           93.0340    18.0030     8.3440 O             1 RES     
    6289 Si          81.7660     6.8110     9.2550 Si            1 RES     
    6290 O           52.4310    20.7180     6.6690 O             1 RES     
    6291 Si          91.7730    44.6900    12.3280 Si            1 RES     
    6292 O           78.3720    33.8490     7.0030 O             1 RES     
    6293 OS          62.9090    27.3060    12.5350 OS            1 RES     
    6294 Si          54.1990     5.0560    10.8450 Si            1 RES     
    6295 O           89.9540     5.4880     5.1340 O             1 RES     
    6296 Si          52.1290    14.5270     4.0690 Si            1 RES     
    6297 Si          73.8080     8.7590     7.0580 Si            1 RES     
    6298 O           65.0930     0.7780     4.4410 O             1 RES     
    6299 O           84.8950     4.1750     6.5650 O             1 RES     
    6300 OS          84.3920    29.4680    12.5620 OS            1 RES     
    6301 O           53.3300    22.7720     8.3380 O             1 RES     
    6302 O           68.1330     9.5050     2.4330 O             1 RES     
    6303 O           62.2920    44.5360     9.1110 O             1 RES     
    6304 O           56.9350    20.8710     7.3810 O             1 RES     
    6305 Si          58.2440    37.4110     8.3920 Si            1 RES     
    6306 OS          75.8330    15.4440    13.8280 OS            1 RES     
    6307 Si          63.5490    34.3190    11.9030 Si            1 RES     
    6308 Si          69.7110     7.5830    10.4450 Si            1 RES     
    6309 Si          78.6080    15.3720     4.9640 Si            1 RES     
    6310 O           89.9930     4.1720     3.0720 O             1 RES     
    6311 Si          75.0340    32.0940     8.5620 Si            1 RES     
    6312 O           93.6290    33.2150     5.0040 O             1 RES     
    6313 Si          61.3430    41.5240     4.6710 Si            1 RES     
    6314 Si          77.0130    13.1390     8.3330 Si            1 RES     
    6315 Si          98.9600    13.6160     4.9470 Si            1 RES     
    6316 O           76.9220    29.1920     9.9540 O             1 RES     
    6317 Si          56.3490    26.5680     6.4490 Si            1 RES     
    6318 O           76.2180     3.1580    10.9840 O             1 RES     
    6319 O           83.2120    16.3800     9.3320 O             1 RES     
    6320 OS          56.4260    34.7250    12.1420 OS            1 RES     
    6321 O           69.1830    48.4110     2.8480 O             1 RES     
    6322 Si          52.8540    46.5740     8.6460 Si            1 RES     
    6323 O           90.5630    35.5950     5.7950 O             1 RES     
    6324 O           83.2630    10.6490     7.6910 O             1 RES     
    6325 O           94.8170    49.4930     6.4370 O             1 RES     
    6326 O           65.8050     0.2400    11.7960 O             1 RES     
    6327 Si          79.1690    40.2680     6.9740 Si            1 RES     
    6328 O           74.2300    32.0940     9.9360 O             1 RES     
    6329 OS          86.0060    14.0500    12.9430 OS            1 RES     
    6330 Si          54.1400    31.8930    12.2360 Si            1 RES     
    6331 O           63.9600    35.7890    11.8600 O             1 RES     
    6332 O           60.1560    17.0980     6.7790 O             1 RES     
    6333 O           81.4100    38.4720    11.0010 O             1 RES     
    6334 O           66.3110     9.1870    12.1930 O             1 RES     
    6335 O           99.7160     6.1130    11.9960 O             1 RES     
    6336 Si          96.2190     6.7850     6.0930 Si            1 RES     
    6337 OS          99.4500     8.6740    12.1600 OS            1 RES     
    6338 O           50.5590    24.8310     9.4250 O             1 RES     
    6339 O           81.0190    12.8100     4.2520 O             1 RES     
    6340 O           92.5120    13.8110     3.3200 O             1 RES     
    6341 O           94.9820    35.0040     3.9540 O             1 RES     
    6342 Si          97.8900    40.3320     9.3920 Si            1 RES     
    6343 OS          90.7650    19.2600    12.4870 OS            1 RES     
    6344 O           99.3310    34.6780     8.0710 O             1 RES     
    6345 O           56.5610     9.2230     3.8240 O             1 RES     
    6346 O           84.6850    12.5290    11.3780 O             1 RES     
    6347 Si          74.1050    39.4900    10.4800 Si            1 RES     
    6348 O           83.2570     0.2650     5.6660 O             1 RES     
    6349 O           72.7900     9.8900     7.1890 O             1 RES     
    6350 O           82.6950    35.6060     6.7950 O             1 RES     
    6351 OS          55.9340    28.2390    12.2320 OS            1 RES     
    6352 O           79.9530    15.9870     4.5410 O             1 RES     
    6353 Si          95.8740    13.8780     8.0790 Si            1 RES     
    6354 O           93.1760    24.2670    13.5710 O             1 RES     
    6355 O           84.1640    17.8210    10.9570 O             1 RES     
    6356 Si          99.1160    20.2060    11.9690 Si            1 RES     
    6357 O           65.7400    10.8380     8.1330 O             1 RES     
    6358 Si          55.7440    46.3750     9.5310 Si            1 RES     
    6359 O           88.2740    24.3050    10.1730 O             1 RES     
    6360 O           93.1520     1.7600     6.8610 O             1 RES     
    6361 O           74.4440    16.8930     9.2070 O             1 RES     
    6362 Si          97.1230    44.1060     8.0430 Si            1 RES     
    6363 Si          82.3110    13.8020     4.0170 Si            1 RES     
    6364 O           77.0840     0.2090     8.7460 O             1 RES     
    6365 Si          92.5260    24.7440    12.2770 Si            1 RES     
    6366 O           98.5480     9.5350     6.5140 O             1 RES     
    6367 O           82.0830     5.2400     9.5810 O             1 RES     
    6368 Si          80.7770     6.9750     6.3810 Si            1 RES     
    6369 O           82.6560    17.3460     3.5770 O             1 RES     
    6370 Si          72.9830    46.9500     5.2330 Si            1 RES     
    6371 Si          60.7820    22.8880     7.5800 Si            1 RES     
    6372 O           87.9150    35.4680     2.4360 O             1 RES     
    6373 Si          78.5620    10.2560     3.2980 Si            1 RES     
    6374 O           89.5970     8.4610     6.8880 O             1 RES     
    6375 OS          78.0860    27.0470    12.8440 OS            1 RES     
    6376 Si          62.4540     0.0520     9.2110 Si            1 RES     
    6377 O           96.1330    18.2330    11.5320 O             1 RES     
    6378 O           75.1730     9.3400     6.4250 O             1 RES     
    6379 O           83.3330    44.0330    10.0310 O             1 RES     
    6380 O           91.8390    24.0760     5.2260 O             1 RES     
    6381 Si          87.3600    17.2670     7.9960 Si            1 RES     
    6382 Si          78.2610    28.7300     5.8670 Si            1 RES     
    6383 Si          80.2820     8.1480    12.0040 Si            1 RES     
    6384 O           53.8730     2.3210     7.7110 O             1 RES     
    6385 OS          59.8770    49.4910    12.5530 OS            1 RES     
    6386 O           64.0220    10.2330    11.5570 O             1 RES     
    6387 Si          72.5800    13.5060     8.3100 Si            1 RES     
    6388 O           99.1180     1.8730     9.3660 O             1 RES     
    6389 Si          98.9490    14.0960     8.0240 Si            1 RES     
    6390 Si          96.8790     3.8960     6.8860 Si            1 RES     
    6391 O           85.4650    32.8620     6.0240 O             1 RES     
    6392 O           77.1510    37.9040     8.7450 O             1 RES     
    6393 Si          67.7620    23.1290     3.9820 Si            1 RES     
    6394 O           76.4320    17.0710     7.9550 O             1 RES     
    6395 O           73.7870    28.9780    13.9750 O             1 RES     
    6396 O           64.9030    22.0870     6.1110 O             1 RES     
    6397 O           66.5420    43.3890     8.1150 O             1 RES     
    6398 O           50.9190    22.9880     4.2150 O             1 RES     
    6399 Si          67.7200    13.2740     4.9340 Si            1 RES     
    6400 O           55.1420    42.4580     8.9610 O             1 RES     
    6401 O           84.5830     8.8080     5.8920 O             1 RES     
    6402 O           50.6930    22.6550     1.5560 O             1 RES     
    6403 O           77.9120    44.4110     6.9660 O             1 RES     
    6404 Si          98.7060    12.1020    12.1750 Si            1 RES     
    6405 O           90.0080     4.3710    11.6840 O             1 RES     
    6406 O           68.3840    14.6960     5.1130 O             1 RES     
    6407 O           55.2630    46.3220    11.0400 O             1 RES     
    6408 O           97.8390    21.1070     5.3680 O             1 RES     
    6409 Si          76.3970    15.0080    12.4620 Si            1 RES     
    6410 O           92.3170    26.3140     6.2530 O             1 RES     
    6411 O           75.3350     7.2390    10.7060 O             1 RES     
    6412 Si          81.4810    26.0880     8.1040 Si            1 RES     
    6413 O           99.2420    36.2610     5.9950 O             1 RES     
    6414 O           96.9280     2.4810     9.7930 O             1 RES     
    6415 O           86.5390    30.8970     7.4160 O             1 RES     
    6416 O           82.5680    21.7720     6.0700 O             1 RES     
    6417 O           51.2920    19.6120     8.2810 O             1 RES     
    6418 O           74.1240    12.2340     5.0580 O             1 RES     
    6419 Si          53.8400     3.8590     8.0030 Si            1 RES     
    6420 Si          52.7330     7.5870     9.8720 Si            1 RES     
    6421 O           57.5060    25.9090    11.4880 O             1 RES     
    6422 Si          58.4160    24.7610     7.8710 Si            1 RES     
    6423 OS          51.2370    16.9980    13.2580 OS            1 RES     
    6424 O           64.4070     2.7210     7.7180 O             1 RES     
    6425 O           75.0570    40.4720    11.2770 O             1 RES     
    6426 O           71.3450    31.9200     4.4470 O             1 RES     
    6427 Si          61.9350    39.3810     9.6200 Si            1 RES     
    6428 Si          62.9040     2.3990     7.3500 Si            1 RES     
    6429 O           84.6530     4.1580     4.0910 O             1 RES     
    6430 Si          70.6580    32.5660     5.7020 Si            1 RES     
    6431 O           59.9550     6.7670    10.5320 O             1 RES     
    6432 O           56.3270    49.7210     5.6860 O             1 RES     
    6433 O           78.0230    23.1170     4.3880 O             1 RES     
    6434 Si          63.5940     1.3770     4.4050 Si            1 RES     
    6435 O           76.0460    12.7870     7.0520 O             1 RES     
    6436 Si          58.1330    39.0510    11.0320 Si            1 RES     
    6437 O           79.3400     0.0210     9.9030 O             1 RES     
    6438 OS          70.6290    19.5290    12.8240 OS            1 RES     
    6439 O           96.3110    16.6070     5.0460 O             1 RES     
    6440 O           85.1690     9.0720     8.2150 O             1 RES     
    6441 O           72.7640    36.2150    10.5800 O             1 RES     
    6442 O           71.7240     4.2780    11.3080 O             1 RES     
    6443 O           80.1630    19.2540     8.8420 O             1 RES     
    6444 Si          65.8320    17.6140    10.7090 Si            1 RES     
    6445 O           99.4760    39.6740     5.8810 O             1 RES     
    6446 O           67.5210    13.0590     3.3260 O             1 RES     
    6447 Si          63.2090    43.8680     5.5150 Si            1 RES     
    6448 O           86.7560    28.3420     3.2740 O             1 RES     
    6449 O           50.1930     8.2110     7.5440 O             1 RES     
    6450 O           90.9160     8.9220     9.0310 O             1 RES     
    6451 Si          85.5870    48.5000    12.5270 Si            1 RES     
    6452 OS          82.5230    30.9610    12.8910 OS            1 RES     
    6453 Si          76.3850    30.8540     4.7940 Si            1 RES     
    6454 Si          71.2500     0.8260    12.5180 Si            1 RES     
    6455 O           77.9370    28.7950     7.4510 O             1 RES     
    6456 Si          82.3110     1.7010    11.9900 Si            1 RES     
    6457 O           70.8080     3.1280     6.0350 O             1 RES     
    6458 O           90.3960    19.4270    10.0400 O             1 RES     
    6459 O           58.1620    44.6540     3.9810 O             1 RES     
    6460 O           81.2400    47.1840     7.4300 O             1 RES     
    6461 O           73.7120     2.8520    10.9510 O             1 RES     
    6462 Si          71.9530    49.8670     5.1650 Si            1 RES     
    6463 O           78.4080    32.9060    12.4150 O             1 RES     
    6464 Si          52.6000    39.6720    10.1250 Si            1 RES     
    6465 Si          64.2540    20.1500     9.5970 Si            1 RES     
    6466 Si          83.7110    11.3420    11.5940 Si            1 RES     
    6467 O           52.3200    36.0940    10.2110 O             1 RES     
    6468 Si          83.6340    36.2480     7.9020 Si            1 RES     
    6469 OS          60.7800     5.6640    12.5930 OS            1 RES     
    6470 O           74.1490    43.2310    10.0890 O             1 RES     
    6471 O           93.1390    28.5830    10.8060 O             1 RES     
    6472 O           97.2410     5.9820    11.9870 O             1 RES     
    6473 Si          63.1380    10.7930    10.3950 Si            1 RES     
    6474 O           67.1380    33.0670    11.5390 O             1 RES     
    6475 Si          76.4910    29.8150    11.3490 Si            1 RES     
    6476 O           68.5480    12.0030     5.4170 O             1 RES     
    6477 O           81.5450    35.9710     4.5650 O             1 RES     
    6478 Si          50.7740    47.0520     3.7350 Si            1 RES     
    6479 O           52.5520     7.5940     3.3250 O             1 RES     
    6480 Si          95.9920    32.1560     8.3110 Si            1 RES     
    6481 O           94.3380    46.0900     7.4270 O             1 RES     
    6482 Si          93.0130    29.5670     5.5960 Si            1 RES     
    6483 Si          93.2570     4.0900    10.1390 Si            1 RES     
    6484 Si          77.4220     3.6870    10.1520 Si            1 RES     
    6485 O           70.0630    39.6790     1.9350 O             1 RES     
    6486 O           67.8060     0.4220     4.2120 O             1 RES     
    6487 O           88.2740     6.0910    11.2360 O             1 RES     
    6488 O           54.5930    39.7580     5.1360 O             1 RES     
    6489 Si          78.9100     1.9180     6.1170 Si            1 RES     
    6490 O           61.7560     6.7500     4.0410 O             1 RES     
    6491 Si          74.7800    37.9610     5.9250 Si            1 RES     
    6492 O           59.0370     8.2650     8.6630 O             1 RES     
    6493 O           74.0770    12.4170     2.5300 O             1 RES     
    6494 O           87.7560    32.9340     2.4400 O             1 RES     
    6495 OS          54.5950    49.1400    14.5170 OS            1 RES     
    6496 O           74.6140    21.0140    11.8510 O             1 RES     
    6497 O           72.9150    25.2500     2.6540 O             1 RES     
    6498 O           60.7970    47.4620     6.5500 O             1 RES     
    6499 Si          71.8370    41.1810     9.1520 Si            1 RES     
    6500 O           59.1480     7.9230     3.5290 O             1 RES     
    6501 Si          90.5370     9.9940    10.0790 Si            1 RES     
    6502 O           55.7350     5.3190    11.2190 O             1 RES     
    6503 O           51.9570    38.9090     4.9630 O             1 RES     
    6504 O           89.2870    40.1540    10.0700 O             1 RES     
    6505 O           53.8470    17.0590     4.3490 O             1 RES     
    6506 O           67.8950    41.6230     7.1700 O             1 RES     
    6507 Si          91.1600    32.1080     9.2800 Si            1 RES     
    6508 Si          57.5300    18.7090     4.5500 Si            1 RES     
    6509 O           89.2430    10.7900     9.7430 O             1 RES     
    6510 O           88.8950    14.7690     9.3090 O             1 RES     
    6511 Si          82.5590    37.3940    10.4550 Si            1 RES     
    6512 O           86.1270    46.5280     6.8370 O             1 RES     
    6513 O           85.6710     7.5290     3.6010 O             1 RES     
    6514 Si          91.2410     5.5420     6.0670 Si            1 RES     
    6515 O           94.3530    47.2570     5.2990 O             1 RES     
    6516 O           71.0960    11.5510    11.3260 O             1 RES     
    6517 O           86.3140    47.7270     2.8030 O             1 RES     
    6518 Si          53.2690     7.8770     4.6890 Si            1 RES     
    6519 Si          94.3260    32.8360    10.9620 Si            1 RES     
    6520 O           55.9080    44.4830     4.7470 O             1 RES     
    6521 O           87.8670    48.5510     6.9750 O             1 RES     
    6522 Si          97.7890    29.7170     7.8140 Si            1 RES     
    6523 O           60.5360    45.8010    10.8160 O             1 RES     
    6524 O           80.0420     6.9110     3.1560 O             1 RES     
    6525 O           79.3280    25.3040     5.3200 O             1 RES     
    6526 O           52.6590     4.1220     4.7300 O             1 RES     
    6527 O           53.6920    39.0040     2.9030 O             1 RES     
    6528 O           96.0630     7.6860    10.0550 O             1 RES     
    6529 Si          92.8980    39.7550    11.7930 Si            1 RES     
    6530 Si          94.6300    32.1160     5.5620 Si            1 RES     
    6531 Si          56.6730    28.6420     4.1830 Si            1 RES     
    6532 O           85.2920    12.1580     4.2350 O             1 RES     
    6533 O           73.1660    15.8090     4.5290 O             1 RES     
    6534 OS          86.2370    33.6100    13.1820 OS            1 RES     
    6535 O           57.7920    19.5000     3.2450 O             1 RES     
    6536 Si          89.0220    39.1650     3.7950 Si            1 RES     
    6537 O           88.6900    39.3440     5.2950 O             1 RES     
    6538 Si          70.5840    46.4850     9.0350 Si            1 RES     
    6539 Si          76.1220     6.8770     3.7100 Si            1 RES     
    6540 O           70.6050    27.2480    10.9330 O             1 RES     
    6541 O           92.4750    43.0040     4.0240 O             1 RES     
    6542 O           98.6060    16.6050     3.7510 O             1 RES     
    6543 OS          81.7590    28.7610    13.1040 OS            1 RES     
    6544 O           67.4440    10.2380     6.5740 O             1 RES     
    6545 O           79.8050     9.3610     3.5760 O             1 RES     
    6546 O           74.9300     2.2730     5.9240 O             1 RES     
    6547 O           78.3520    10.3970     1.7180 O             1 RES     
    6548 O           95.0480    49.2860     3.9300 O             1 RES     
    6549 O           98.9510    41.4400     9.0160 O             1 RES     
    6550 Si          73.2200    44.8880     8.7860 Si            1 RES     
    6551 O           96.5110    30.6330     8.0910 O             1 RES     
    6552 Si          52.9310    20.3950    11.4460 Si            1 RES     
    6553 O           87.0440    36.4570     7.0990 O             1 RES     
    6554 OS          73.2340    45.3400    13.3730 OS            1 RES     
    6555 Si          54.5790    17.8720    12.0130 Si            1 RES     
    6556 O           81.9420    31.6430     9.0490 O             1 RES     
    6557 Si          70.8980    21.6300     7.9010 Si            1 RES     
    6558 O           70.6810    24.5750    10.5290 O             1 RES     
    6559 Si          99.8680    39.7510    11.6200 Si            1 RES     
    6560 O           96.8890    41.2540    10.2250 O             1 RES     
    6561 Si          91.9310    29.5470    10.6970 Si            1 RES     
    6562 O           50.9740     5.9620     6.5700 O             1 RES     
    6563 O           65.6560    34.3010     8.0550 O             1 RES     
    6564 O           61.1760    49.7570    10.1540 O             1 RES     
    6565 O           66.9850    20.3870     6.9930 O             1 RES     
    6566 O           71.1540    22.3680     9.2110 O             1 RES     
    6567 Si          57.0370     4.9610    12.2210 Si            1 RES     
    6568 O           59.8820    35.6720     2.0770 O             1 RES     
    6569 O           52.4470     0.3440    10.6000 O             1 RES     
    6570 Si          84.4530    45.6960    12.7250 Si            1 RES     
    6571 O           85.4760     0.9680    10.6270 O             1 RES     
    6572 O           88.3100    16.9160     6.8450 O             1 RES     
    6573 Si          99.5990    10.9130     3.3680 Si            1 RES     
    6574 O           80.3820    40.4390    11.8390 O             1 RES     
    6575 O           52.3780    48.0490     9.1800 O             1 RES     
    6576 O           61.9200    35.5030     8.8340 O             1 RES     
    6577 Si          61.6610    42.2820    11.3350 Si            1 RES     
    6578 O           66.2840     2.2140     9.1100 O             1 RES     
    6579 O           78.8800    23.1380     6.8910 O             1 RES     
    6580 Si          65.1530     8.2330     3.0780 Si            1 RES     
    6581 O           87.6080    16.6840     3.1480 O             1 RES     
    6582 O           66.5280    23.4710     4.8550 O             1 RES     
    6583 O           52.0400    19.3430    10.6480 O             1 RES     
    6584 O           76.6770    32.2300     8.4070 O             1 RES     
    6585 O           84.8490    45.1810     8.5100 O             1 RES     
    6586 O           94.2890    39.3050    11.3820 O             1 RES     
    6587 O           83.8490    20.4930    11.2560 O             1 RES     
    6588 O           72.5550    39.5800     2.1820 O             1 RES     
    6589 O           92.6690    41.1440    11.1220 O             1 RES     
    6590 O           51.5370    26.3480    11.4820 O             1 RES     
    6591 O           81.1460    46.0030     2.2060 O             1 RES     
    6592 O           56.7110    37.0250     8.4600 O             1 RES     
    6593 O           90.4520    26.0420     4.4160 O             1 RES     
    6594 Si          51.4310    29.3570     4.3530 Si            1 RES     
    6595 Si          79.4410    44.1440     6.3630 Si            1 RES     
    6596 Si          84.5620    37.2000    12.6940 Si            1 RES     
    6597 O           65.4150    17.9690     3.7480 O             1 RES     
    6598 O           98.6890    29.9460     9.1440 O             1 RES     
    6599 Si          69.7040    35.1190     4.3010 Si            1 RES     
    6600 Si          59.2350    40.2780     8.5050 Si            1 RES     
    6601 O           60.1700    22.6780     3.4770 O             1 RES     
    6602 O           78.0260    48.4980     3.9550 O             1 RES     
    6603 Si          60.2590     7.0960     4.3300 Si            1 RES     
    6604 Si          60.7680     0.3680     4.1590 Si            1 RES     
    6605 O           57.4330    33.4430    10.3300 O             1 RES     
    6606 O           87.5930    12.8270     9.0240 O             1 RES     
    6607 O           89.2760    49.7930     5.2960 O             1 RES     
    6608 Si          90.4220    22.1860     8.0240 Si            1 RES     
    6609 O           91.5440    30.2860     5.8490 O             1 RES     
    6610 Si          65.1180    23.4980     5.5180 Si            1 RES     
    6611 O           87.2250    44.6220     8.1630 O             1 RES     
    6612 Si          87.4620    29.9450     6.6480 Si            1 RES     
    6613 O           78.2940     2.3970     9.6980 O             1 RES     
    6614 Si          99.9060    16.3460     2.8790 Si            1 RES     
    6615 O           52.1370    21.5170    12.1680 O             1 RES     
    6616 O           93.6060    34.1830    10.4770 O             1 RES     
    6617 Si          90.0440    22.8680     2.7750 Si            1 RES     
    6618 Si          80.3540    49.4740    11.0060 Si            1 RES     
    6619 O           60.4660    28.0500     3.3230 O             1 RES     
    6620 O           93.5030    29.4090     4.0760 O             1 RES     
    6621 O           62.3350    34.3870    10.9070 O             1 RES     
    6622 Si          80.2830    35.4870    10.0540 Si            1 RES     
    6623 O           51.5180     7.7760    10.8100 O             1 RES     
    6624 OS          63.9350    48.6380    12.4890 OS            1 RES     
    6625 O           61.8470    15.4370     5.8870 O             1 RES     
    6626 Si          86.3330    41.9210    10.7280 Si            1 RES     
    6627 Si          85.4250    49.3560     9.7630 Si            1 RES     
    6628 O           70.1260    10.3950     6.6900 O             1 RES     
    6629 O           92.1540     3.4420    10.9540 O             1 RES     
    6630 OS          98.7590     4.2680    13.4230 OS            1 RES     
    6631 O           84.3070    45.7400    11.1810 O             1 RES     
    6632 Si          78.9580    19.7090    12.6810 Si            1 RES     
    6633 O           63.5450     2.5430     3.3690 O             1 RES     
    6634 Si          60.8420    26.5980     2.8430 Si            1 RES     
    6635 Si          70.2770    23.7320     5.6520 Si            1 RES     
    6636 Si          64.4350    38.4700     8.2500 Si            1 RES     
    6637 O           64.3810    38.4590    11.4540 O             1 RES     
    6638 Si          90.9010     7.9910    12.3730 Si            1 RES     
    6639 Si          54.0140    12.4090     2.8490 Si            1 RES     
    6640 O           96.4900     5.3760     6.6270 O             1 RES     
    6641 O           93.7220     5.6280     2.8890 O             1 RES     
    6642 OS          59.7740     8.0690    12.8280 OS            1 RES     
    6643 O           61.2780    22.8880     6.1010 O             1 RES     
    6644 Si          84.9060    19.1140     7.6960 Si            1 RES     
    6645 O           64.3030     7.0030     3.5270 O             1 RES     
    6646 O           57.6360     4.7540     3.4860 O             1 RES     
    6647 O           51.1770    36.5940     7.9670 O             1 RES     
    6648 Si          91.8900    36.6090     5.6030 Si            1 RES     
    6649 Si          58.3270    24.6850    10.8860 Si            1 RES     
    6650 Si          98.5580    37.0190     4.7550 Si            1 RES     
    6651 O           68.0280    24.1480     2.7820 O             1 RES     
    6652 O           88.2120    40.3700     3.1680 O             1 RES     
    6653 O           63.2290    18.9340     4.1960 O             1 RES     
    6654 O           51.5240    42.1600     5.3490 O             1 RES     
    6655 O           84.2080    41.4020     2.9950 O             1 RES     
    6656 O           59.9340    30.2440     7.3410 O             1 RES     
    6657 O           52.0630    15.5610     2.9380 O             1 RES     
    6658 Si          77.0240    28.3330     8.6310 Si            1 RES     
    6659 OS          88.5380    40.3870    12.5310 OS            1 RES     
    6660 O           85.8430     5.7330    11.5410 O             1 RES     
    6661 O           77.5350     2.5990     5.9240 O             1 RES     
    6662 Si          93.6470     6.3850     4.3100 Si            1 RES     
    6663 O           92.4490    45.0810     5.6010 O             1 RES     
    6664 O           88.6840    34.5900     7.1850 O             1 RES     
    6665 Si          93.7680    26.7680     6.7440 Si            1 RES     
    6666 O           97.2250    26.1170     2.2900 O             1 RES     
    6667 O           54.9090    17.5310    10.4690 O             1 RES     
    6668 O           78.7750     5.2600     1.7050 O             1 RES     
    6669 Si          81.4390    21.9590     5.0050 Si            1 RES     
    6670 Si          71.4930    10.7350     7.5580 Si            1 RES     
    6671 O           63.9710     6.4620     5.8890 O             1 RES     
    6672 O           83.0330    13.1450     8.0570 O             1 RES     
    6673 Si          84.9240    33.4730     4.7240 Si            1 RES     
    6674 OS          76.3210    32.7020    13.5690 OS            1 RES     
    6675 Si          81.5440    41.4570    12.4750 Si            1 RES     
    6676 O           79.3740    43.0310     2.4190 O             1 RES     
    6677 O           75.4890    13.7300    12.0520 O             1 RES     
    6678 Si          91.1940    25.4280     5.6740 Si            1 RES     
    6679 Si          75.0190    33.6200     4.5810 Si            1 RES     
    6680 O           75.8520    37.3180     4.9610 O             1 RES     
    6681 O           76.2680    22.5560     2.5550 O             1 RES     
    6682 O           83.7020     3.5210     8.8710 O             1 RES     
    6683 Si          99.5320    36.2110     7.5480 Si            1 RES     
    6684 O           57.9020    12.8950     5.8120 O             1 RES     
    6685 Si          82.6620    21.5750    11.0900 Si            1 RES     
    6686 Si          91.8410    37.7970     9.8630 Si            1 RES     
    6687 O           74.8970    38.6820     9.4090 O             1 RES     
    6688 O           69.4320    30.9940     8.6450 O             1 RES     
    6689 O           73.0340     6.4600    10.7360 O             1 RES     
    6690 Si          56.1230    21.0220     6.0700 Si            1 RES     
    6691 O           76.2580     7.8970     4.8800 O             1 RES     
    6692 O           74.7020    27.8820     4.0000 O             1 RES     
    6693 O           56.7870    43.4910    11.0880 O             1 RES     
    6694 O           54.7200    26.2960     6.7230 O             1 RES     
    6695 O           87.7030    28.5370     7.3720 O             1 RES     
    6696 O           84.9560    33.9470    11.0150 O             1 RES     
    6697 O           64.4000    21.2030    10.7780 O             1 RES     
    6698 O           67.2170    24.9120    13.6390 O             1 RES     
    6699 O           54.4340    46.6510     3.6400 O             1 RES     
    6700 O           80.7400    41.4030     3.7310 O             1 RES     
    6701 O           54.3840    13.3880    11.0640 O             1 RES     
    6702 O           72.1030    11.6210    13.7130 O             1 RES     
    6703 Si          81.4340    47.1230     9.0250 Si            1 RES     
    6704 OS          86.8030    42.6740    12.0850 OS            1 RES     
    6705 Si          72.1270    35.1590     9.6950 Si            1 RES     
    6706 Si          54.3300    41.3140     8.1820 Si            1 RES     
    6707 O           90.7490    28.5730    10.2950 O             1 RES     
    6708 O           82.6930    40.5850     4.9870 O             1 RES     
    6709 O           81.9860     3.9110     4.1460 O             1 RES     
    6710 O           95.5510     9.8530     8.1410 O             1 RES     
    6711 Si          80.2600    26.5190     5.2240 Si            1 RES     
    6712 Si          80.8330    16.8930    12.4020 Si            1 RES     
    6713 O           83.2690     3.5440     1.8200 O             1 RES     
    6714 Si          83.1600    28.3150     9.5480 Si            1 RES     
    6715 OS          94.0770    47.9320    12.2840 OS            1 RES     
    6716 O           97.5480    38.0060     5.6180 O             1 RES     
    6717 Si          87.6450    27.2860     8.3550 Si            1 RES     
    6718 OS          77.5640    24.5850    13.4620 OS            1 RES     
    6719 O           57.1940    24.1080     3.5390 O             1 RES     
    6720 Si          66.4750     0.4530     5.0370 Si            1 RES     
    6721 OS          69.0150    33.9640    12.9490 OS            1 RES     
    6722 Si          63.7360    46.8480     4.7960 Si            1 RES     
    6723 O           95.7160     3.1720     7.7260 O             1 RES     
    6724 O           97.2460    43.8840     6.4930 O             1 RES     
    6725 O           83.8920     7.0090    12.1530 O             1 RES     
    6726 Si          89.0750     5.0900     3.8950 Si            1 RES     
    6727 O           57.5480    21.7370     2.2120 O             1 RES     
    6728 O           88.7150    11.9880     2.8450 O             1 RES     
    6729 O           67.3960    45.5620     7.7220 O             1 RES     
    6730 Si          75.4570     0.0150     8.9280 Si            1 RES     
    6731 O           76.8410    31.3830    11.3970 O             1 RES     
    6732 Si          56.6870    28.7520     8.6050 Si            1 RES     
    6733 O           72.9350     8.4130     3.4420 O             1 RES     
    6734 O           89.6580    23.4910     8.2180 O             1 RES     
    6735 O           90.5220    13.4140     7.5850 O             1 RES     
    6736 O           62.5910    40.7200     5.2870 O             1 RES     
    6737 OS          79.9960    21.1650    13.4540 OS            1 RES     
    6738 Si          91.0860    12.8460     6.2010 Si            1 RES     
    6739 Si          66.5360    42.3980     6.8450 Si            1 RES     
    6740 O           55.2850    29.5070     8.5800 O             1 RES     
    6741 Si          95.8050    26.2980     2.8180 Si            1 RES     
    6742 O           63.0470    46.5060     7.9250 O             1 RES     
    6743 O           50.7180    49.8240     8.9760 O             1 RES     
    6744 Si          61.1980    35.2150    10.2120 Si            1 RES     
    6745 O           66.1250    27.2630     7.1250 O             1 RES     
    6746 O           92.0090     8.9310     6.7160 O             1 RES     
    6747 O           79.4600     7.4260     7.0500 O             1 RES     
    6748 Si          74.4940    16.1220     5.1530 Si            1 RES     
    6749 O           64.2950    24.3120     4.4240 O             1 RES     
    6750 O           79.1570    32.0700     6.3030 O             1 RES     
    6751 O           66.2070    42.0650     2.8460 O             1 RES     
    6752 Si          59.1930     2.1070     6.1930 Si            1 RES     
    6753 O           72.3780    10.9030     3.1270 O             1 RES     
    6754 O           79.5450    27.8690     5.5900 O             1 RES     
    6755 Si          59.7130    35.8030     6.0890 Si            1 RES     
    6756 O           66.2530    39.6080     2.5560 O             1 RES     
    6757 O           86.1380    34.2730     4.0100 O             1 RES     
    6758 O           88.8820    42.7470     2.5550 O             1 RES     
    6759 O           91.4980     4.0980     6.5750 O             1 RES     
    6760 O           94.7810    41.7280     3.7870 O             1 RES     
    6761 Si          71.5530    37.3940     5.0980 Si            1 RES     
    6762 O           65.2540    46.7190     5.0130 O             1 RES     
    6763 Si          98.3050     8.8110     5.0710 Si            1 RES     
    6764 Si          69.3380    36.4260     9.9850 Si            1 RES     
    6765 O           97.7060     8.7760     8.5610 O             1 RES     
    6766 O           66.0610     6.3310     7.6540 O             1 RES     
    6767 O           98.3560    10.4680     2.3570 O             1 RES     
    6768 Si          57.5970    15.8860     3.3550 Si            1 RES     
    6769 Si          83.3320    42.4600    10.1280 Si            1 RES     
    6770 Si          96.0100    36.0040     3.3990 Si            1 RES     
    6771 O           96.9380    40.5590     4.9240 O             1 RES     
    6772 Si          64.4050    18.2450     4.9420 Si            1 RES     
    6773 O           96.1040    11.4080     5.6420 O             1 RES     
    6774 O           77.3830     8.8200     6.7370 O             1 RES     
    6775 O           81.8700    15.0560     3.2500 O             1 RES     
    6776 Si          65.9070    10.0890     6.7220 Si            1 RES     
    6777 O           60.8390    15.5770    10.8400 O             1 RES     
    6778 Si          53.8790    23.8550     9.3030 Si            1 RES     
    6779 O           60.9570    21.5610     8.4690 O             1 RES     
    6780 Si          57.0870    27.4220    11.3940 Si            1 RES     
    6781 O           92.1170    20.9600    11.0440 O             1 RES     
    6782 O           91.2090     6.6220     7.2350 O             1 RES     
    6783 Si          53.2300    16.7320     5.8630 Si            1 RES     
    6784 O           75.0490    41.8660     6.4780 O             1 RES     
    6785 Si          51.2730    44.7730    10.5840 Si            1 RES     
    6786 O           52.6120    46.4420     7.0790 O             1 RES     
    6787 O           63.6390    49.8840    10.2120 O             1 RES     
    6788 O           80.6700    34.1810     9.2810 O             1 RES     
    6789 Si          91.1270    42.6480     8.1450 Si            1 RES     
    6790 O           90.0150     6.7220    12.7820 O             1 RES     
    6791 OS          96.5220    14.8410    13.6800 OS            1 RES     
    6792 O           69.5030    37.4470    11.1780 O             1 RES     
    6793 O           90.1420    18.5980     7.4890 O             1 RES     
    6794 O           56.4810    45.2430    12.8770 O             1 RES     
    6795 O           53.6000    44.9390     4.7370 O             1 RES     
    6796 O           90.1310    32.9500    10.1810 O             1 RES     
    6797 Si          76.6890    16.7210     3.0580 Si            1 RES     
    6798 OS          73.2980    16.4810    11.5780 OS            1 RES     
    6799 O           57.4210    33.3580     4.5400 O             1 RES     
    6800 O           97.3600    32.4420     2.6270 O             1 RES     
    6801 O           88.3920    45.2230     3.4960 O             1 RES     
    6802 O           52.3880    18.0540     6.4230 O             1 RES     
    6803 O           75.3700    36.4550     2.4690 O             1 RES     
    6804 O           83.4470    13.1420     3.1830 O             1 RES     
    6805 OS          74.0410    23.1650    13.5520 OS            1 RES     
    6806 O           86.7380    34.8560     9.1230 O             1 RES     
    6807 O           93.6660    35.3340     8.4330 O             1 RES     
    6808 O           89.8860     2.2040    10.2160 O             1 RES     
    6809 OS          99.6020    12.7850    13.2680 OS            1 RES     
    6810 O           83.9400    24.2910     2.7330 O             1 RES     
    6811 O           61.1720    18.9820     5.3790 O             1 RES     
    6812 O           64.0480     9.3350     3.0620 O             1 RES     
    6813 O           92.7380    34.8950     2.7400 O             1 RES     
    6814 O           95.4570    30.3800     2.5570 O             1 RES     
    6815 O           84.2480    35.0790     8.7640 O             1 RES     
    6816 O           64.3800    26.3200    10.8220 O             1 RES     
    6817 Si          55.3480    49.4170    12.7330 Si            1 RES     
    6818 O           84.2900     4.8140    13.7120 O             1 RES     
    6819 O           91.5300    11.3990     6.3670 O             1 RES     
    6820 O           96.0850    35.4200     1.9540 O             1 RES     
    6821 Si          61.4050    22.6560     4.4670 Si            1 RES     
    6822 Si          55.4440    46.3220    12.6150 Si            1 RES     
    6823 O           97.9650     3.8760     8.0230 O             1 RES     
    6824 O           72.6100    24.2770     9.1200 O             1 RES     
    6825 O           58.7410     3.2920     5.2770 O             1 RES     
    6826 O           93.1120    13.3500    10.8740 O             1 RES     
    6827 O           90.3440    48.4660     7.4730 O             1 RES     
    6828 OS          53.4810     4.3130    11.9250 OS            1 RES     
    6829 OS          65.4450    37.0720    13.3770 OS            1 RES     
    6830 O           80.5520    32.6320    11.0970 O             1 RES     
    6831 O           64.9040    13.0700     7.7000 O             1 RES     
    6832 Si          93.4640    34.5120     4.1050 Si            1 RES     
    6833 O           87.2750    41.3190     6.3480 O             1 RES     
    6834 O           66.5790     8.1120     3.7590 O             1 RES     
    6835 O           94.9030    17.5790     9.8250 O             1 RES     
    6836 O           92.4170    23.6620    11.1840 O             1 RES     
    6837 Si          61.8210    19.6120     4.0960 Si            1 RES     
    6838 O           54.2290     4.2180     9.5200 O             1 RES     
    6839 O           61.9240     3.5670     7.9060 O             1 RES     
    6840 Si          73.2640    28.3340     4.5650 Si            1 RES     
    6841 Si          60.6550    15.6260     6.9070 Si            1 RES     
    6842 Si          66.6240    47.4700     4.8540 Si            1 RES     
    6843 O           92.4230    43.5150    11.6360 O             1 RES     
    6844 O           94.6300    13.0840     4.7050 O             1 RES     
    6845 O           74.8870    23.7760     8.7800 O             1 RES     
    6846 Si          94.1340    14.4970    10.5390 Si            1 RES     
    6847 O           51.7890    11.3740     9.7400 O             1 RES     
    6848 Si          86.3550    48.1240     7.1680 Si            1 RES     
    6849 O           60.2310    49.0210     4.5630 O             1 RES     
    6850 O           78.3610    24.1750     9.0730 O             1 RES     
    6851 O           70.6590    43.6390     4.2780 O             1 RES     
    6852 Si          69.3750    41.1540     7.3020 Si            1 RES     
    6853 O           80.9560    11.5940     8.6360 O             1 RES     
    6854 OS          68.8340     9.1030    13.2000 OS            1 RES     
    6855 OS          68.5960    17.9340    13.0090 OS            1 RES     
    6856 O           96.4730     1.5150     3.5410 O             1 RES     
    6857 O           62.2390    25.8070     3.0760 O             1 RES     
    6858 O           84.3740    21.7230     2.4900 O             1 RES     
    6859 O           57.1170    49.6020     8.2970 O             1 RES     
    6860 O           57.2630    40.2660     5.4760 O             1 RES     
    6861 Si          55.9150    39.6130     6.0160 Si            1 RES     
    6862 Si          59.3260    30.2780     8.7720 Si            1 RES     
    6863 O           71.8550    12.2470     7.6560 O             1 RES     
    6864 Si          82.0220    45.5090     3.4310 Si            1 RES     
    6865 Si          76.3280    36.2830     3.8650 Si            1 RES     
    6866 Si          79.2960    49.2110     4.6370 Si            1 RES     
    6867 Si          59.8470    49.8200    11.0250 Si            1 RES     
    6868 O           73.2350    37.5940     5.5630 O             1 RES     
    6869 O           54.4610     4.4630     6.6550 O             1 RES     
    6870 O           87.6840     4.5540     4.2990 O             1 RES     
    6871 O           58.1540    43.7040     6.2390 O             1 RES     
    6872 O           66.5850     3.8740     7.1990 O             1 RES     
    6873 Si          93.4070    14.0150     4.5790 Si            1 RES     
    6874 O           79.2980    38.8270     7.6790 O             1 RES     
    6875 O           79.3870    21.7350     9.2020 O             1 RES     
    6876 Si          69.1950    49.8120     3.6240 Si            1 RES     
    6877 O           88.6720    38.0910    11.0390 O             1 RES     
    6878 Si          87.7770    35.5230     8.0530 Si            1 RES     
    6879 O           50.8420    23.7000    11.6950 O             1 RES     
    6880 Si          95.3090    46.5390     8.6930 Si            1 RES     
    6881 O           90.1670    32.8790     5.9980 O             1 RES     
    6882 O           99.4920    12.2080     4.3130 O             1 RES     
    6883 Si          93.2470    18.1450     6.8110 Si            1 RES     
    6884 O           51.2610    45.9670     4.7330 O             1 RES     
    6885 O           70.5560     6.5140    11.2540 O             1 RES     
    6886 Si          96.4700    21.9070     5.5860 Si            1 RES     
    6887 O           83.7270     4.7470    11.2180 O             1 RES     
    6888 O           98.7680    39.6940    10.5490 O             1 RES     
    6889 Si          53.4020     1.0840     6.7640 Si            1 RES     
    6890 O           71.3330     1.8710    11.3530 O             1 RES     
    6891 O           85.5060    11.1090     6.4490 O             1 RES     
    6892 O           76.7580     4.1720     8.6430 O             1 RES     
    6893 OS          94.5140    28.1680    12.7980 OS            1 RES     
    6894 O           87.1250     4.6340     6.7400 O             1 RES     
    6895 Si          92.0090     8.7670     3.2600 Si            1 RES     
    6896 Si          96.1000    12.5440     4.5270 Si            1 RES     
    6897 OS          99.5030    40.8540    12.6370 OS            1 RES     
    6898 O           61.7300    11.3630    10.8470 O             1 RES     
    6899 Si          60.5060     3.9990     8.3070 Si            1 RES     
    6900 O           76.4340    42.8610    11.3620 O             1 RES     
    6901 OS          60.2690    20.2770    12.7150 OS            1 RES     
    6902 O           54.0880     6.5780     5.0410 O             1 RES     
    6903 Si          54.7960    45.1350     3.8250 Si            1 RES     
    6904 Si          67.2500    36.7620     5.3500 Si            1 RES     
    6905 O           72.6580    35.0170     8.1920 O             1 RES     
    6906 O           54.7760    11.3850     3.7570 O             1 RES     
    6907 Si          52.1730    30.1660    10.6390 Si            1 RES     
    6908 O           79.6660     9.5910    12.2180 O             1 RES     
    6909 Si          51.5830    19.4170     6.7290 Si            1 RES     
    6910 Si          54.1910    30.4610     4.9740 Si            1 RES     
    6911 O           68.7420    19.2920     3.6040 O             1 RES     
    6912 OS          79.6860    44.8840    11.6080 OS            1 RES     
    6913 Si          71.1900    42.2330     4.8640 Si            1 RES     
    6914 O           80.7800    20.5740     4.9990 O             1 RES     
    6915 O           69.1700    19.3410     6.1340 O             1 RES     
    6916 Si          71.9210     5.8130    11.6850 Si            1 RES     
    6917 O           80.8090    16.9810     1.4340 O             1 RES     
    6918 O           69.2280    34.6030     2.8800 O             1 RES     
    6919 Si          54.1090     5.0000     5.1770 Si            1 RES     
    6920 O           56.3600    18.8940     8.8740 O             1 RES     
    6921 O           56.2940     0.6990     3.4020 O             1 RES     
    6922 O           65.1280     3.2530    11.2180 O             1 RES     
    6923 Si          74.5940    16.9940    10.8350 Si            1 RES     
    6924 Si          62.2190    47.6710     7.2280 Si            1 RES     
    6925 O           87.6340    43.1750     4.6860 O             1 RES     
    6926 OS          90.8040     9.0420    13.7160 OS            1 RES     
    6927 Si          77.3070    45.2360     8.2250 Si            1 RES     
    6928 O           83.9980    22.9060     7.6760 O             1 RES     
    6929 O           95.1190    37.2770     3.0810 O             1 RES     
    6930 O           56.8140    47.4990     9.5180 O             1 RES     
    6931 O           64.2680    43.1000     4.5660 O             1 RES     
    6932 O           91.9410    38.7310    11.1050 O             1 RES     
    6933 O           55.3760    40.2880     7.4140 O             1 RES     
    6934 O           90.1690    43.8500     4.6990 O             1 RES     
    6935 O           77.7100    40.7150     6.5120 O             1 RES     
    6936 O           90.9140    41.0570     8.2180 O             1 RES     
    6937 O           80.0460    40.2740     5.7160 O             1 RES     
    6938 O           89.6660    27.1110    12.0460 O             1 RES     
    6939 O           67.3190    47.0070     3.5200 O             1 RES     
    6940 Si          82.9580     4.0070    10.1090 Si            1 RES     
    6941 Si          84.8320    34.0840    12.5900 Si            1 RES     
    6942 OS          57.6280    43.2180    13.5850 OS            1 RES     
    6943 Si          97.7210    26.6370     7.6180 Si            1 RES     
    6944 O           80.9160    26.5840     3.7620 O             1 RES     
    6945 O           73.9220    42.3280    12.3240 O             1 RES     
    6946 OS          75.8880    40.5100    13.6960 OS            1 RES     
    6947 O           86.9150    15.8830     8.6820 O             1 RES     
    6948 O           71.1230    47.8380     9.4230 O             1 RES     
    6949 O           94.2260     1.4090     2.5910 O             1 RES     
    6950 O           71.3940    24.2170     4.6260 O             1 RES     
    6951 OS          88.1040    25.3190    12.6240 OS            1 RES     
    6952 Si          82.5640    11.8050     8.6730 Si            1 RES     
    6953 O           83.7820    18.0900     7.4940 O             1 RES     
    6954 OS          59.2800    39.5730    11.9060 OS            1 RES     
    6955 O           51.9720     1.2120     6.1930 O             1 RES     
    6956 O           96.1200    47.9080     8.9550 O             1 RES     
    6957 O           65.0400    45.0910     8.8960 O             1 RES     
    6958 O           90.8230    25.8370     1.9520 O             1 RES     
    6959 O           55.1570    33.7200     3.2020 O             1 RES     
    6960 Si          93.0790    47.3120    11.1950 Si            1 RES     
    6961 O           71.8820    18.2290     2.1210 O             1 RES     
    6962 O           59.7870    41.1050     4.7360 O             1 RES     
    6963 O           56.1870    10.7460     5.5900 O             1 RES     
    6964 O           84.0590    49.7060     8.3830 O             1 RES     
    6965 O           96.9490    42.9200     4.2110 O             1 RES     
    6966 O           90.5380    39.4770     3.5280 O             1 RES     
    6967 O           75.0980    48.5330     8.5770 O             1 RES     
    6968 Si          83.8420    45.4100     9.7360 Si            1 RES     
    6969 O           51.0700    29.6330     2.7850 O             1 RES     
    6970 O           81.7480    46.3360     4.7500 O             1 RES     
    6971 O           95.9950    25.4950     4.1030 O             1 RES     
    6972 Si          74.4620    20.2280     4.2260 Si            1 RES     
    6973 O           51.2180    40.0580    10.7650 O             1 RES     
    6974 O           99.7400    19.9800    10.4620 O             1 RES     
    6975 O           86.5850     7.6310    10.1330 O             1 RES     
    6976 O           82.3760    49.8430     3.1810 O             1 RES     
    6977 OS          79.5430    49.3210    12.4220 OS            1 RES     
    6978 Si          88.2170    48.4220    11.3390 Si            1 RES     
    6979 OS          77.3500    36.5040    12.2680 OS            1 RES     
    6980 O           71.5430    31.5880     9.9880 O             1 RES     
    6981 O           84.2360    27.1980    10.1070 O             1 RES     
    6982 Si          78.9930     5.7800     3.1930 Si            1 RES     
    6983 O           66.7080    12.7920     9.7260 O             1 RES     
    6984 OS          58.3120    28.2320    12.0050 OS            1 RES     
    6985 Si          67.5100    25.8340    12.3960 Si            1 RES     
    6986 O           63.1120    45.4360     5.0930 O             1 RES     
    6987 O           58.6580    38.8890     7.8230 O             1 RES     
    6988 O           75.4570    30.2240     5.8030 O             1 RES     
    6989 OS          65.4610    30.9980    12.0200 OS            1 RES     
    6990 OS          70.9830    17.0100    12.4260 OS            1 RES     
    6991 O           52.5790    23.0990     5.9300 O             1 RES     
    6992 Si          73.6140    20.2550     7.2040 Si            1 RES     
    6993 O           62.8580    28.5260    10.3000 O             1 RES     
    6994 Si          99.4750    31.2930     5.8120 Si            1 RES     
    6995 OS          80.2560     7.0160    13.1400 OS            1 RES     
    6996 O           51.0510    42.4950     2.7780 O             1 RES     
    6997 O           97.2880    39.8280     7.4040 O             1 RES     
    6998 Si          68.5590    46.0310     6.8330 Si            1 RES     
    6999 Si          84.5940    12.1700     2.8700 Si            1 RES     
    7000 Si          72.8780    32.3050    10.6540 Si            1 RES     
    7001 O           90.5280    15.8970     7.9670 O             1 RES     
    7002 O           99.8640    21.4210    12.6100 O             1 RES     
    7003 Si          92.2390     3.0160     7.4680 Si            1 RES     
    7004 OS          53.7080    32.8340    13.4430 OS            1 RES     
    7005 O           52.5300    34.7780    12.6110 O             1 RES     
    7006 O           99.6160    16.5430    11.2260 O             1 RES     
    7007 Si          77.6710    25.6370    12.2540 Si            1 RES     
    7008 O           59.4760    25.8230     3.2250 O             1 RES     
    7009 OS          66.1200    18.1080    12.2320 OS            1 RES     
    7010 Si          52.5000    36.8800     8.8330 Si            1 RES     
    7011 O           60.4580    19.5140    10.2270 O             1 RES     
    7012 O           81.5910     0.4320    11.3760 O             1 RES     
    7013 O           56.2520     3.0190     2.5250 O             1 RES     
    7014 O           73.7620    20.4510     5.6460 O             1 RES     
    7015 O           56.4440    28.1370     2.6900 O             1 RES     
    7016 Si          82.9600    16.8100     7.8490 Si            1 RES     
    7017 O           95.8420    12.2230     2.9200 O             1 RES     
    7018 Si          82.2490    34.8590     5.3880 Si            1 RES     
    7019 O           93.5730    19.3770     5.9410 O             1 RES     
    7020 O           91.4800    11.2340    10.4330 O             1 RES     
    7021 O           77.1300    19.9590    11.9050 O             1 RES     
    7022 O           93.1120     9.0960     2.1700 O             1 RES     
    7023 O           65.5340    25.4820     8.9350 O             1 RES     
    7024 O           78.6790    23.3450     2.1370 O             1 RES     
    7025 O           94.5210    17.3100     6.5560 O             1 RES     
    7026 O           63.6740    44.1950     7.0730 O             1 RES     
    7027 OS          64.3730    14.0060    12.1490 OS            1 RES     
    7028 O           65.2320    24.6720     6.5390 O             1 RES     
    7029 O           60.0290     5.5380     8.3100 O             1 RES     
    7030 Si          75.5300    22.6310     7.8570 Si            1 RES     
    7031 O           52.1790    47.9090     3.7720 O             1 RES     
    7032 Si          78.9950    23.7520     5.4270 Si            1 RES     
    7033 Si          53.1650    10.6790    10.1300 Si            1 RES     
    7034 O           66.2890    28.8230     5.1010 O             1 RES     
    7035 O           67.3520    32.1840     7.5460 O             1 RES     
    7036 O           84.8070    39.4040     4.0380 O             1 RES     
    7037 Si          86.5260    42.5080     5.6500 Si            1 RES     
    7038 O           69.9540     6.7290     6.2850 O             1 RES     
    7039 OS          54.6190    12.9200    13.5930 OS            1 RES     
    7040 O           52.3390     4.1420     7.6210 O             1 RES     
    7041 O           91.9660    30.8780     9.8350 O             1 RES     
    7042 Si          85.8660    49.2400     2.9200 Si            1 RES     
    7043 O           58.7220    18.7280     5.6150 O             1 RES     
    7044 OS          64.6250     3.0450    13.8430 OS            1 RES     
    7045 Si          85.9630    37.4350     6.4760 Si            1 RES     
    7046 Si          55.4570    15.2780     7.5350 Si            1 RES     
    7047 OS          77.9400    14.5790    12.6080 OS            1 RES     
    7048 Si          93.3240    41.8310     3.2860 Si            1 RES     
    7049 Si          93.4030    46.2690     6.1900 Si            1 RES     
    7050 Si          79.6460    11.3040     7.7860 Si            1 RES     
    7051 O           86.5260    14.3320    10.5830 O             1 RES     
    7052 O           86.0060    43.7990     6.4990 O             1 RES     
    7053 Si          58.0120    14.4310     6.0600 Si            1 RES     
    7054 O           88.2490    18.3300     8.8490 O             1 RES     
    7055 O           93.7310    19.8350     3.3930 O             1 RES     
    7056 O           77.6680    35.9060     3.0870 O             1 RES     
    7057 O           50.4900    43.5340    10.0180 O             1 RES     
    7058 O           63.6420    35.4190     6.9260 O             1 RES     
    7059 O           62.7540    11.4440     2.6230 O             1 RES     
    7060 Si          62.9910    27.1330    10.9580 Si            1 RES     
    7061 Si          73.8630    45.8620    11.9930 Si            1 RES     
    7062 O           72.2970    48.3590     5.3120 O             1 RES     
    7063 Si          75.9610     5.2320     7.8690 Si            1 RES     
    7064 O           74.2940     1.8930     2.7680 O             1 RES     
    7065 O           66.4760    37.7040     4.3180 O             1 RES     
    7066 O           88.9960     6.4630     3.1540 O             1 RES     
    7067 Si          60.7150    31.6810    12.0640 Si            1 RES     
    7068 O           84.5510    35.6090    12.8760 O             1 RES     
    7069 Si          90.2900    17.2020     6.6710 Si            1 RES     
    7070 O           50.1750    17.8730     2.5890 O             1 RES     
    7071 O           94.9450    25.3230     1.8730 O             1 RES     
    7072 O           75.4540    16.6890     4.0590 O             1 RES     
    7073 O           71.2320    41.1290     3.7910 O             1 RES     
    7074 O           97.9910    20.1320     7.5240 O             1 RES     
    7075 O           78.9260     1.4310     7.6320 O             1 RES     
    7076 Si          74.1400     6.9550     9.6920 Si            1 RES     
    7077 Si          60.0460    45.8610    12.3140 Si            1 RES     
    7078 O           69.5920    46.6460     7.8140 O             1 RES     
    7079 O           99.2820    13.9790     6.4470 O             1 RES     
    7080 Si          82.7610    30.8370     8.0090 Si            1 RES     
    7081 OS          86.0280    19.1090    11.6440 OS            1 RES     
    7082 O           75.9280    36.2850     9.9660 O             1 RES     
    7083 OS          66.9410     1.5030    13.9450 OS            1 RES     
    7084 Si          58.0890     9.1650     3.4690 Si            1 RES     
    7085 O           57.4840    43.0870     8.6110 O             1 RES     
    7086 O           51.1320    27.7500     4.4110 O             1 RES     
    7087 Si          91.8280    48.1740     7.9800 Si            1 RES     
    7088 Si          88.2600     9.3290     6.6120 Si            1 RES     
    7089 O           90.4440    45.0910    11.7210 O             1 RES     
    7090 O           72.1720    28.9880    12.0870 O             1 RES     
    7091 O           72.5850    42.3680     5.5940 O             1 RES     
    7092 O           56.3640     0.9860    13.3560 O             1 RES     
    7093 O           71.1010    18.6210     4.3820 O             1 RES     
    7094 O           78.6020    25.5380    10.9880 O             1 RES     
    7095 Si          95.1290    16.0420     5.8950 Si            1 RES     
    7096 OS          98.0560    45.4530    12.2910 OS            1 RES     
    7097 O           64.1680    24.4350     1.8690 O             1 RES     
    7098 O           63.8490    13.9900     5.4690 O             1 RES     
    7099 Si          91.6930    22.5180     5.2840 Si            1 RES     
    7100 O           57.7250    10.1780     9.7690 O             1 RES     
    7101 O           65.1780    41.4640     6.7210 O             1 RES     
    7102 O           50.5540    24.3760     6.7230 O             1 RES     
    7103 Si          88.2510    39.6490    11.1770 Si            1 RES     
    7104 O           63.2470     4.9020     3.6700 O             1 RES     
    7105 O           87.0490     8.3670     5.3170 O             1 RES     
    7106 O           68.5340     9.5700     4.7320 O             1 RES     
    7107 O           78.1010     7.5450     8.9600 O             1 RES     
    7108 O           54.4450    49.1510     3.9220 O             1 RES     
    7109 Si          84.1500     0.2340     6.9910 Si            1 RES     
    7110 O           78.9690     0.5530     5.4100 O             1 RES     
    7111 O           75.2910    45.2430    11.4690 O             1 RES     
    7112 OS          98.5810     0.0460    12.8100 OS            1 RES     
    7113 O           59.1010    41.7060     7.7430 O             1 RES     
    7114 OS          98.7460    16.5420    13.5350 OS            1 RES     
    7115 O           52.8580    31.2520    11.5010 O             1 RES     
    7116 O           78.9490    32.9340     4.0500 O             1 RES     
    7117 Si          96.1820    13.6870    12.6920 Si            1 RES     
    7118 O           72.4060    27.0210     4.5720 O             1 RES     
    7119 O           82.4200    22.4380     3.8130 O             1 RES     
    7120 Si          69.3320    37.9810     7.2560 Si            1 RES     
    7121 OS          63.0730    33.9140    13.3170 OS            1 RES     
    7122 OS          51.1850    49.5760    12.8470 OS            1 RES     
    7123 Si          73.2730    36.9670    11.8210 Si            1 RES     
    7124 O           75.0460    37.2640     7.3890 O             1 RES     
    7125 O           64.9480    19.2350     6.0250 O             1 RES     
    7126 Si          97.2880    48.5670     9.7450 Si            1 RES     
    7127 Si          89.1580     5.4970    12.3780 Si            1 RES     
    7128 O           56.1050    35.7080     4.4190 O             1 RES     
    7129 Si          65.4760    20.6070     6.7620 Si            1 RES     
    7130 O           64.5900    33.3570    11.3350 O             1 RES     
    7131 Si          67.0470     0.9500    12.4370 Si            1 RES     
    7132 O           52.3170     7.2640     8.3850 O             1 RES     
    7133 O           59.0200    36.3940     7.3610 O             1 RES     
    7134 OS          50.4130    36.1710    11.9020 OS            1 RES     
    7135 O           57.3160    17.2230    10.7510 O             1 RES     
    7136 O           98.3180    49.4250     8.8890 O             1 RES     
    7137 Si          96.3050     7.2390    11.5810 Si            1 RES     
    7138 Si          50.9870    22.4530    12.7220 Si            1 RES     
    7139 OS          62.6550    43.2920    11.9990 OS            1 RES     
    7140 O           58.1300     3.5870    11.1090 O             1 RES     
    7141 O           62.0960     9.1050     6.9030 O             1 RES     
    7142 Si          84.7290    19.2200    10.7460 Si            1 RES     
    7143 O           59.8690    36.6850     4.6570 O             1 RES     
    7144 O           56.2950    49.5440    10.8970 O             1 RES     
    7145 O           91.9290    17.3280     6.3350 O             1 RES     
    7146 O           59.4350    46.6280     4.5100 O             1 RES     
    7147 O           90.4240     8.4670     2.8820 O             1 RES     
    7148 Si          76.2590     7.5200    11.9100 Si            1 RES     
    7149 O           82.8230    46.4750     9.3520 O             1 RES     
    7150 Si          56.6160    22.6860     3.5980 Si            1 RES     
    7151 O           77.6590    26.8770     8.9330 O             1 RES     
    7152 Si          65.6720    43.1520     3.8470 Si            1 RES     
    7153 O           94.8030    25.8370     6.1180 O             1 RES     
    7154 O           62.3800     0.3960     4.1410 O             1 RES     
    7155 O           89.3280    74.2340     3.1580 O             1 RES     
    7156 O           58.4580    98.5390     6.1960 O             1 RES     
    7157 O           59.9370    84.3450     9.7080 O             1 RES     
    7158 O           77.9310    70.9500     2.9650 O             1 RES     
    7159 O           67.9060    76.7860    31.7030 O             1 RES     
    7160 Si          84.0510    71.9090     6.4800 Si            1 RES     
    7161 O           81.4160    67.1410     7.9150 O             1 RES     
    7162 O           57.4230    75.4710     6.7820 O             1 RES     
    7163 O           97.1120    53.1090     5.5400 O             1 RES     
    7164 O           82.8980    57.8050     9.9470 O             1 RES     
    7165 Si          88.7810    61.9610     4.5220 Si            1 RES     
    7166 O           75.3700    51.5880    12.7280 O             1 RES     
    7167 O           78.2200    57.4620    11.4690 O             1 RES     
    7168 O           91.5420    72.2820     9.1930 O             1 RES     
    7169 O           81.7550    51.9730    13.4760 O             1 RES     
    7170 Si          51.2140    76.3900     3.6200 Si            1 RES     
    7171 O           79.7320    76.4640    18.1490 O             1 RES     
    7172 Si          71.3710    77.5260    29.0300 Si            1 RES     
    7173 O           75.4130    77.0380    22.5220 O             1 RES     
    7174 Si          84.4610    68.2610    19.3450 Si            1 RES     
    7175 O           78.3420    88.5540    22.3780 O             1 RES     
    7176 Si          86.5960    80.7710    21.7510 Si            1 RES     
    7177 O           82.1660    92.1050     9.0280 O             1 RES     
    7178 O           74.7340    70.0660    24.9410 O             1 RES     
    7179 O           76.2930    96.3710     7.6460 O             1 RES     
    7180 O           67.5360    75.3840     7.5700 O             1 RES     
    7181 Si          69.9810    58.4740    19.2410 Si            1 RES     
    7182 O           81.2960    87.9280    20.0040 O             1 RES     
    7183 O           64.7270    60.6090    16.5090 O             1 RES     
    7184 O           84.8140    64.3740    25.0390 O             1 RES     
    7185 Si          64.1710    78.3780    25.7990 Si            1 RES     
    7186 OS          95.4190    83.1370    12.1080 OS            1 RES     
    7187 Si          87.4340    54.1390     8.1680 Si            1 RES     
    7188 O           85.4360    82.8570     8.7280 O             1 RES     
    7189 O           76.6350    74.5160    26.9750 O             1 RES     
    7190 O           73.7070    74.5910     4.9950 O             1 RES     
    7191 Si          68.9430    90.9130    13.6300 Si            1 RES     
    7192 O           59.6650    81.9680     5.7910 O             1 RES     
    7193 Si          95.4860    72.8860    10.2000 Si            1 RES     
    7194 O           81.2230    62.5860    19.3290 O             1 RES     
    7195 Si          64.7460    84.6370    18.4750 Si            1 RES     
    7196 Si          69.9930    68.2280    12.3350 Si            1 RES     
    7197 O           74.5250    80.7410     7.9630 O             1 RES     
    7198 O           83.0730    72.3560    24.5250 O             1 RES     
    7199 O           82.6640    91.9310    11.4990 O             1 RES     
    7200 O           56.5590    77.3500     5.0100 O             1 RES     
    7201 Si          58.9520    83.0600     4.9870 Si            1 RES     
    7202 O           90.1130    75.9410     9.7650 O             1 RES     
    7203 O           70.6210    87.5380     6.4480 O             1 RES     
    7204 Si          74.6920    79.4830     6.9840 Si            1 RES     
    7205 Si          69.3940    65.7420     5.6330 Si            1 RES     
    7206 O           79.8760    61.7970     6.2890 O             1 RES     
    7207 O           87.9360    80.6050     3.1040 O             1 RES     
    7208 O           99.3000    93.1650     4.7740 O             1 RES     
    7209 O           99.2410    65.4300     8.7790 O             1 RES     
    7210 Si          66.0040    75.6960     7.5250 Si            1 RES     
    7211 O           60.2360    53.4110     9.6970 O             1 RES     
    7212 O           93.4210    78.2730     6.3950 O             1 RES     
    7213 OS          68.7980    61.3860    26.7480 OS            1 RES     
    7214 O           87.0320    69.9110    17.3270 O             1 RES     
    7215 O           50.1870    90.6520     3.9740 O             1 RES     
    7216 O           61.9330    86.8760     3.0060 O             1 RES     
    7217 Si          93.8870    50.3740     7.3530 Si            1 RES     
    7218 O           73.3580    62.3080    11.7210 O             1 RES     
    7219 Si          74.0800    77.9740    30.3070 Si            1 RES     
    7220 Si          75.3870    91.5760    12.4880 Si            1 RES     
    7221 O           96.0860    71.2950     7.0170 O             1 RES     
    7222 O           71.7340    56.6160     4.3500 O             1 RES     
    7223 O           73.6280    88.4180    11.4120 O             1 RES     
    7224 O           98.4240    80.3200     6.4430 O             1 RES     
    7225 O           64.8410    73.7240    11.1040 O             1 RES     
    7226 O           90.0630    75.9950    16.9590 O             1 RES     
    7227 O           78.7240    68.3380    27.5450 O             1 RES     
    7228 O           69.8310    68.9470    23.8580 O             1 RES     
    7229 Si          63.0440    68.4560    18.0770 Si            1 RES     
    7230 O           63.8720    57.7270     8.0010 O             1 RES     
    7231 Si          84.3220    74.4550    20.8670 Si            1 RES     
    7232 O           92.9320    85.6550     5.0210 O             1 RES     
    7233 Si          64.9580    72.2990    11.7660 Si            1 RES     
    7234 Si          51.3660    73.9370     5.4410 Si            1 RES     
    7235 O           69.5870    78.8450    25.1550 O             1 RES     
    7236 O           67.8410    87.7820    13.0870 O             1 RES     
    7237 O           52.1070    95.4170     9.4240 O             1 RES     
    7238 Si          73.7100    78.9220    12.3920 Si            1 RES     
    7239 O           88.9530    85.4330    11.0830 O             1 RES     
    7240 O           68.9750    87.1960     8.6150 O             1 RES     
    7241 O           70.4090    99.8920     4.6600 O             1 RES     
    7242 OS          95.0010    86.9310    13.7540 OS            1 RES     
    7243 O           96.3590    88.6730     9.4100 O             1 RES     
    7244 Si          80.3630    92.9570     3.6210 Si            1 RES     
    7245 O           72.5390    50.6400     1.6870 O             1 RES     
    7246 Si          97.8950    93.8810     5.0840 Si            1 RES     
    7247 O           71.7380    95.4450     8.6830 O             1 RES     
    7248 O           83.6680    70.8850    22.5030 O             1 RES     
    7249 Si          85.5520    64.6750    23.7210 Si            1 RES     
    7250 O           79.7260    84.7920    11.3840 O             1 RES     
    7251 O           78.0750    55.0820    10.5820 O             1 RES     
    7252 O           70.8740    76.1540    29.5570 O             1 RES     
    7253 Si          74.9300    97.1050     7.6980 Si            1 RES     
    7254 O           99.2420    97.3080     4.1190 O             1 RES     
    7255 O           69.3630    92.3460    13.2480 O             1 RES     
    7256 O           92.6700    89.8890    13.3630 O             1 RES     
    7257 Si          65.3950    74.9270    18.7220 Si            1 RES     
    7258 O           80.4550    57.1310    10.0400 O             1 RES     
    7259 Si          73.1700    57.2460     4.4180 Si            1 RES     
    7260 O           72.6910    90.0080     9.8390 O             1 RES     
    7261 O           59.2430    84.4260     5.6130 O             1 RES     
    7262 Si          85.9510    95.0840     7.4200 Si            1 RES     
    7263 OS          58.0170    72.6680    24.6990 OS            1 RES     
    7264 O           63.0020    64.6690    10.0680 O             1 RES     
    7265 Si          72.3030    68.2180     3.4300 Si            1 RES     
    7266 O           88.6920    94.6600     9.9650 O             1 RES     
    7267 Si          81.1710    81.2090    26.2960 Si            1 RES     
    7268 Si          55.3750    86.6310     5.4460 Si            1 RES     
    7269 O           89.0760    79.1910    22.8490 O             1 RES     
    7270 O           81.6610    56.9240     7.6810 O             1 RES     
    7271 Si          79.2570    76.5860    26.2040 Si            1 RES     
    7272 Si          78.5190    89.6970    21.2650 Si            1 RES     
    7273 Si          76.3910    89.6320    14.8380 Si            1 RES     
    7274 OS          52.1040    94.4950    11.9170 OS            1 RES     
    7275 Si          71.3380    63.9410    17.5180 Si            1 RES     
    7276 O           83.2710    87.6820     4.3090 O             1 RES     
    7277 O           52.5230    87.1640    12.4500 O             1 RES     
    7278 O           84.7990    91.8550    10.2240 O             1 RES     
    7279 O           73.3720    74.1330    17.6500 O             1 RES     
    7280 Si          70.4020    95.1770     4.5950 Si            1 RES     
    7281 O           62.2970    83.4780    22.2640 O             1 RES     
    7282 Si          80.0820    67.9670     7.9450 Si            1 RES     
    7283 O           80.5780    93.3520     7.2540 O             1 RES     
    7284 O           69.3900    82.4830    10.8440 O             1 RES     
    7285 O           88.7970    97.0110    10.9690 O             1 RES     
    7286 O           69.5900    71.5850    27.3260 O             1 RES     
    7287 O           83.1590    68.6260    18.4230 O             1 RES     
    7288 Si          89.4990    69.3740     8.7080 Si            1 RES     
    7289 Si          93.3370    74.2480    15.1140 Si            1 RES     
    7290 O           92.9490    88.5760     2.4350 O             1 RES     
    7291 Si          53.8240    79.5800     7.9930 Si            1 RES     
    7292 O           76.1210    58.9700    12.5670 O             1 RES     
    7293 O           87.3440    58.4030     7.9400 O             1 RES     
    7294 O           65.1020    87.0500     8.0510 O             1 RES     
    7295 O           59.6790    53.5510     2.8980 O             1 RES     
    7296 O           81.5790    93.9430     3.5960 O             1 RES     
    7297 O           77.8110    62.0850    15.9380 O             1 RES     
    7298 Si          85.8900    62.3490     5.6510 Si            1 RES     
    7299 O           54.2640    59.0260     4.7800 O             1 RES     
    7300 Si          91.2910    65.0840    15.3670 Si            1 RES     
    7301 O           94.0270    65.3980     4.9560 O             1 RES     
    7302 O           78.1550    86.2310    23.5190 O             1 RES     
    7303 Si          74.8430    62.5870    27.0610 Si            1 RES     
    7304 O           88.3090    83.0360    11.9640 O             1 RES     
    7305 Si          82.8510    79.5180    12.2650 Si            1 RES     
    7306 O           72.9350    91.4540     7.9210 O             1 RES     
    7307 O           80.0370    99.7050     3.3810 O             1 RES     
    7308 O           83.9250    78.2840    22.1920 O             1 RES     
    7309 Si          53.5000    88.7530     4.4320 Si            1 RES     
    7310 Si          78.5630    63.0230    16.9640 Si            1 RES     
    7311 O           71.6310    81.3000    18.1130 O             1 RES     
    7312 Si          71.0720    66.6840    18.9120 Si            1 RES     
    7313 O           88.2010    60.6540     7.5920 O             1 RES     
    7314 O           59.7210    94.1600     8.4230 O             1 RES     
    7315 O           79.2610    62.4060    20.8360 O             1 RES     
    7316 O           63.8370    83.9370    24.2710 O             1 RES     
    7317 Si          73.1010    66.8800    28.2380 Si            1 RES     
    7318 Si          89.6180    80.3460    21.8840 Si            1 RES     
    7319 O           88.4650    75.9060     8.1340 O             1 RES     
    7320 O           56.0940    66.2190     8.6880 O             1 RES     
    7321 Si          85.5490    80.0700    13.5290 Si            1 RES     
    7322 O           69.4890    74.5230    14.7060 O             1 RES     
    7323 O           91.3560    86.3370    10.0850 O             1 RES     
    7324 Si          65.1630    85.7140     7.3010 Si            1 RES     
    7325 OS          57.6490    66.0520    13.1470 OS            1 RES     
    7326 O           81.1850    57.8320     5.0870 O             1 RES     
    7327 O           74.1550    96.1000     8.5750 O             1 RES     
    7328 O           58.2810    56.0230    12.1260 O             1 RES     
    7329 O           95.3310    74.4320     9.8760 O             1 RES     
    7330 O           74.7330    64.2010    15.7440 O             1 RES     
    7331 O           65.4110    78.6120    18.5810 O             1 RES     
    7332 Si          75.6960    87.4590     8.8510 Si            1 RES     
    7333 O           99.6470    65.8970     1.3740 O             1 RES     
    7334 Si          65.9380    82.7240     8.1010 Si            1 RES     
    7335 O           71.9920    69.9800    17.6250 O             1 RES     
    7336 Si          57.5200    94.1720    12.3700 Si            1 RES     
    7337 O           80.4440    73.0700     5.2210 O             1 RES     
    7338 O           96.7050    97.7370     5.0130 O             1 RES     
    7339 Si          86.8180    74.1870    26.5850 Si            1 RES     
    7340 O           61.4490    57.4630     8.7760 O             1 RES     
    7341 Si          73.7950    51.6760     6.8390 Si            1 RES     
    7342 OS          87.2200    88.6400    19.2550 OS            1 RES     
    7343 Si          79.4070    64.1440    12.7720 Si            1 RES     
    7344 O           52.8600    80.0720     9.2260 O             1 RES     
    7345 O           89.9800    69.6340    14.9860 O             1 RES     
    7346 OS          89.2800    61.1270    18.2760 OS            1 RES     
    7347 OS          60.3060    61.6020    16.3500 OS            1 RES     
    7348 Si          71.9800    80.9280     3.3940 Si            1 RES     
    7349 O           74.3500    68.9630     7.6670 O             1 RES     
    7350 O           58.7010    66.3040     2.2870 O             1 RES     
    7351 O           89.3890    85.6320    18.2660 O             1 RES     
    7352 Si          72.5320    75.0840     4.1390 Si            1 RES     
    7353 O           53.2820    59.1310    10.0050 O             1 RES     
    7354 Si          68.5560    83.6670    11.4620 Si            1 RES     
    7355 O           67.6690    79.6720     7.1160 O             1 RES     
    7356 Si          70.2150    56.4960     4.7090 Si            1 RES     
    7357 Si          76.0590    90.8180     5.8490 Si            1 RES     
    7358 O           78.9650    88.7850    10.2090 O             1 RES     
    7359 Si          93.2340    67.4660    14.8830 Si            1 RES     
    7360 O           90.1500    66.6990     2.3940 O             1 RES     
    7361 Si          60.4680    82.1170    19.2800 Si            1 RES     
    7362 Si          99.4280    50.5340     8.6050 Si            1 RES     
    7363 OS          80.9120    55.7890    15.4930 OS            1 RES     
    7364 Si          72.0330    80.3640    30.3700 Si            1 RES     
    7365 O           54.7720    71.7590     6.4550 O             1 RES     
    7366 O           74.2530    83.2980     7.8670 O             1 RES     
    7367 O           76.5570    93.0640    13.5040 O             1 RES     
    7368 Si          60.7020    80.7490     6.1000 Si            1 RES     
    7369 O           75.7290    66.8510    18.1000 O             1 RES     
    7370 O           92.6700    55.6730     5.2900 O             1 RES     
    7371 O           57.8230    68.6520    16.8020 O             1 RES     
    7372 Si          64.2700    99.9640    11.6860 Si            1 RES     
    7373 O           56.6100    71.1300    10.0300 O             1 RES     
    7374 Si          88.6740    84.4040    18.8840 Si            1 RES     
    7375 O           99.4510    61.8250    10.8060 O             1 RES     
    7376 O           91.1260    63.8420     9.8870 O             1 RES     
    7377 O           86.5990    70.8150    13.3960 O             1 RES     
    7378 Si          76.4740    58.3900    16.7630 Si            1 RES     
    7379 O           95.6810    65.0260     7.0230 O             1 RES     
    7380 O           96.7460    76.3010     8.8480 O             1 RES     
    7381 Si          69.0730    75.4720    23.4370 Si            1 RES     
    7382 Si          81.7580    85.8500    25.8560 Si            1 RES     
    7383 O           77.8520    80.1570     5.1630 O             1 RES     
    7384 O           64.0080    66.7380     5.3380 O             1 RES     
    7385 O           88.9990    84.4040    20.4360 O             1 RES     
    7386 Si          63.3490    74.6240     3.2190 Si            1 RES     
    7387 Si          68.8210    78.6480    16.6220 Si            1 RES     
    7388 Si          81.5560    67.3410    21.9840 Si            1 RES     
    7389 O           75.9020    84.8710     4.4290 O             1 RES     
    7390 O           80.3970    82.0910    20.9260 O             1 RES     
    7391 O           80.2480    80.3090    25.3820 O             1 RES     
    7392 Si          64.0290    78.9940    19.1180 Si            1 RES     
    7393 O           87.8080    77.2900    24.2010 O             1 RES     
    7394 O           70.1230    54.8830     4.5910 O             1 RES     
    7395 Si          81.2450    89.5460    20.0620 Si            1 RES     
    7396 O           84.1470    65.1210    11.3000 O             1 RES     
    7397 Si          51.3730    72.1510     2.9220 Si            1 RES     
    7398 O           71.3860    59.3540    14.2790 O             1 RES     
    7399 O           77.1130    84.1080    22.4170 O             1 RES     
    7400 Si          88.7590    78.6320    24.2630 Si            1 RES     
    7401 O           99.7900    75.9860     3.1710 O             1 RES     
    7402 Si          63.5600    75.5810    16.1780 Si            1 RES     
    7403 O           82.2150    77.3290     8.7490 O             1 RES     
    7404 O           92.4190    63.5680     5.7240 O             1 RES     
    7405 O           64.4800    62.6660    20.4370 O             1 RES     
    7406 O           87.2140    55.2770     9.2580 O             1 RES     
    7407 OS          50.6460    77.9250    13.3760 OS            1 RES     
    7408 Si          50.8110    69.1590     9.6580 Si            1 RES     
    7409 O           80.5330    68.1760     4.0030 O             1 RES     
    7410 O           91.9850    83.4010     8.8860 O             1 RES     
    7411 Si          80.5760    64.5990    23.6530 Si            1 RES     
    7412 O           56.9590    88.8170    12.1150 O             1 RES     
    7413 O           73.5630    78.8290     6.0310 O             1 RES     
    7414 Si          86.8960    56.1620    10.4730 Si            1 RES     
    7415 O           90.1330    73.0590    23.6950 O             1 RES     
    7416 OS          80.9060    92.8970    12.8760 OS            1 RES     
    7417 Si          86.6590    69.1670    13.0730 Si            1 RES     
    7418 O           72.3450    83.7720    10.4280 O             1 RES     
    7419 OS          56.2010    77.6300    17.1000 OS            1 RES     
    7420 Si          88.7720    99.4470     3.8340 Si            1 RES     
    7421 Si          70.6320    78.6790    11.6590 Si            1 RES     
    7422 O           79.1060    59.9070     8.0490 O             1 RES     
    7423 O           54.3300    66.1090     6.8260 O             1 RES     
    7424 Si          96.1970    58.4660     8.6420 Si            1 RES     
    7425 O           81.4770    70.9200    10.3250 O             1 RES     
    7426 O           73.6740    63.7090     7.1970 O             1 RES     
    7427 O           75.7850    66.0530    11.2930 O             1 RES     
    7428 Si          75.0720    52.0650    11.2810 Si            1 RES     
    7429 O           56.5130    62.3630    10.0980 O             1 RES     
    7430 O           59.7480    72.3050    14.0480 O             1 RES     
    7431 O           81.2430    76.1310     6.4910 O             1 RES     
    7432 O           79.5560    93.4330     4.9100 O             1 RES     
    7433 OS          67.5320    92.3620    18.9590 OS            1 RES     
    7434 O           55.5290    79.6980     4.5780 O             1 RES     
    7435 Si          62.1290    79.9390     9.9840 Si            1 RES     
    7436 O           72.2790    91.0960    19.3910 O             1 RES     
    7437 OS          67.5340    74.5020    32.1750 OS            1 RES     
    7438 O           87.6540    72.6800    14.4990 O             1 RES     
    7439 OS          69.3970    55.5340    14.5810 OS            1 RES     
    7440 Si          92.9810    92.5610    10.5600 Si            1 RES     
    7441 O           50.0220    64.5270     4.1100 O             1 RES     
    7442 O           77.5270    56.1070     3.8020 O             1 RES     
    7443 Si          59.4180    52.8310    10.8570 Si            1 RES     
    7444 Si          67.9690    68.8430    28.7790 Si            1 RES     
    7445 O           81.6600    86.1520    10.5500 O             1 RES     
    7446 Si          68.5290    81.0570     7.4200 Si            1 RES     
    7447 Si          71.9050    90.6620    20.8110 Si            1 RES     
    7448 OS          72.9530    95.1110    10.9490 OS            1 RES     
    7449 O           61.4300    71.6950    17.6030 O             1 RES     
    7450 O           97.5310    78.1790     7.5710 O             1 RES     
    7451 Si          82.4110    61.4260    14.4260 Si            1 RES     
    7452 O           72.0970    52.9560     3.5790 O             1 RES     
    7453 Si          87.0740    71.3240    18.0000 Si            1 RES     
    7454 O           73.9750    97.1680     6.4300 O             1 RES     
    7455 O           74.9340    80.9910    24.1330 O             1 RES     
    7456 O           59.8800    72.3300    19.7970 O             1 RES     
    7457 O           79.7920    80.7710    16.6300 O             1 RES     
    7458 Si          85.6350    57.7970     5.0950 Si            1 RES     
    7459 O           78.6390    86.2550    14.3820 O             1 RES     
    7460 Si          61.3180    79.0010    26.6670 Si            1 RES     
    7461 O           85.3170    77.6670    24.2080 O             1 RES     
    7462 Si          65.2560    75.1420    10.4270 Si            1 RES     
    7463 O           68.6580    85.0890    10.6360 O             1 RES     
    7464 O           88.8630    70.6920    24.1700 O             1 RES     
    7465 O           70.2660    87.5690    13.8000 O             1 RES     
    7466 O           79.7200    68.0810    12.3670 O             1 RES     
    7467 O           76.0000    69.8770     4.2940 O             1 RES     
    7468 O           91.0400    52.2550     8.1180 O             1 RES     
    7469 O           75.1070    89.1070    15.6650 O             1 RES     
    7470 Si          76.5050    59.2230     5.5330 Si            1 RES     
    7471 O           86.9120    90.4130    10.7990 O             1 RES     
    7472 O           70.7340    65.2520     4.9050 O             1 RES     
    7473 O           85.1830    87.4330    19.0810 O             1 RES     
    7474 O           69.4960    68.3400    10.8120 O             1 RES     
    7475 Si          80.2060    74.9450    31.8950 Si            1 RES     
    7476 O           72.9330    52.9620     7.0930 O             1 RES     
    7477 Si          89.1270    71.6950    20.2040 Si            1 RES     
    7478 OS          96.3160    98.9330    13.3120 OS            1 RES     
    7479 O           75.5590    73.5770     6.4960 O             1 RES     
    7480 Si          91.7210    70.5500    18.8770 Si            1 RES     
    7481 O           84.9440    98.6380    11.0810 O             1 RES     
    7482 Si          75.5740    69.7440    11.9030 Si            1 RES     
    7483 O           70.5340    75.9520    23.7300 O             1 RES     
    7484 Si          89.8650    63.0490    13.4740 Si            1 RES     
    7485 O           50.6750    80.5180    10.5840 O             1 RES     
    7486 O           69.3050    90.6320    15.2050 O             1 RES     
    7487 Si          69.9420    56.1710     7.7720 Si            1 RES     
    7488 Si          73.1990    62.0790     3.8050 Si            1 RES     
    7489 O           80.8380    55.4450     5.9680 O             1 RES     
    7490 O           95.9100    57.5290     7.3860 O             1 RES     
    7491 Si          53.6840    62.8230    12.3480 Si            1 RES     
    7492 O           71.6650    66.2320    20.3260 O             1 RES     
    7493 O           68.8100    94.6700    12.2700 O             1 RES     
    7494 Si          88.0060    61.3040     9.0220 Si            1 RES     
    7495 O           70.9740    86.1480     4.3800 O             1 RES     
    7496 O           79.1830    74.1540    18.9220 O             1 RES     
    7497 O           58.3330    76.1150    20.0720 O             1 RES     
    7498 O           83.5230    95.4890     2.9160 O             1 RES     
    7499 O           78.3750    56.0870    14.6900 O             1 RES     
    7500 O           66.8640    76.1490    26.9910 O             1 RES     
    7501 O           73.1790    81.3580     2.5010 O             1 RES     
    7502 Si          59.2410    95.5480     3.3790 Si            1 RES     
    7503 O           71.6180    70.4650    28.4220 O             1 RES     
    7504 Si          84.3650    55.5360    12.3320 Si            1 RES     
    7505 Si          89.6160    75.8090     3.1450 Si            1 RES     
    7506 O           78.8550    66.9830     8.2740 O             1 RES     
    7507 Si          60.8730    75.4460     9.4090 Si            1 RES     
    7508 OS          52.9380    77.3670    13.5110 OS            1 RES     
    7509 Si          71.7680    65.8780    25.7400 Si            1 RES     
    7510 OS          83.3940    95.2420    13.7960 OS            1 RES     
    7511 Si          95.8650    81.8970     2.7980 Si            1 RES     
    7512 O           93.3990    55.4610    10.9030 O             1 RES     
    7513 OS          90.2260    78.1410    24.4900 OS            1 RES     
    7514 O           77.5870    89.1110    20.0540 O             1 RES     
    7515 O           95.3100    82.5620     6.9560 O             1 RES     
    7516 O           71.8170    95.9040     5.1190 O             1 RES     
    7517 O           92.0710    97.7170     9.4400 O             1 RES     
    7518 OS          78.4160    57.9340    23.2580 OS            1 RES     
    7519 Si          85.4420    82.0520     7.3890 Si            1 RES     
    7520 O           95.1310    64.1860     9.3770 O             1 RES     
    7521 O           63.7230    51.3210    12.2550 O             1 RES     
    7522 O           78.4180    62.2310     8.3410 O             1 RES     
    7523 O           78.2950    71.8190    19.6160 O             1 RES     
    7524 OS          59.5440    83.0830    20.0990 OS            1 RES     
    7525 O           98.1150    53.6560     3.2300 O             1 RES     
    7526 O           74.3630    71.2010     2.9820 O             1 RES     
    7527 Si          50.4750    89.2730     4.6870 Si            1 RES     
    7528 O           66.5100    66.2920    17.0340 O             1 RES     
    7529 Si          99.8290    67.2240    12.6160 Si            1 RES     
    7530 O           61.8830    92.9360     5.5030 O             1 RES     
    7531 O           98.1000    68.5900     5.2710 O             1 RES     
    7532 O           78.8830    62.0910    18.2100 O             1 RES     
    7533 O           86.9350    63.5800    15.2140 O             1 RES     
    7534 Si          63.5760    95.1310     8.3190 Si            1 RES     
    7535 O           57.9420    79.6150     8.5510 O             1 RES     
    7536 O           69.4490    66.2870     9.2650 O             1 RES     
    7537 Si          71.5420    86.5720    14.1650 Si            1 RES     
    7538 O           70.8560    94.1370    13.7370 O             1 RES     
    7539 O           67.7530    78.0320    17.5620 O             1 RES     
    7540 Si          70.9090    78.7900    20.0830 Si            1 RES     
    7541 O           71.8720    83.0660     6.7000 O             1 RES     
    7542 Si          78.1680    82.5160     7.8900 Si            1 RES     
    7543 O           59.3260    64.7530     6.8240 O             1 RES     
    7544 Si          83.4080    73.7200     8.8770 Si            1 RES     
    7545 O           72.0920    70.6210     7.5910 O             1 RES     
    7546 O           53.4620    56.4040    10.5250 O             1 RES     
    7547 Si          70.3450    87.9670    20.7850 Si            1 RES     
    7548 Si          87.3120    74.5400    11.4470 Si            1 RES     
    7549 O           75.2780    65.8930    30.5850 O             1 RES     
    7550 O           76.2140    75.8960    11.8030 O             1 RES     
    7551 Si          78.4600    70.3290    24.2180 Si            1 RES     
    7552 O           77.7680    73.0010    15.5920 O             1 RES     
    7553 Si          89.0690    67.2800     3.3630 Si            1 RES     
    7554 O           88.6180    84.2620     4.5350 O             1 RES     
    7555 Si          87.6040    84.2130     3.3530 Si            1 RES     
    7556 O           76.1580    70.4930    19.6650 O             1 RES     
    7557 O           67.1970    79.7180    13.4790 O             1 RES     
    7558 O           62.2700    75.9970    17.0930 O             1 RES     
    7559 O           50.7970    92.5890     7.7990 O             1 RES     
    7560 O           72.2110    63.2820     3.8790 O             1 RES     
    7561 O           90.1380    75.9320    14.3240 O             1 RES     
    7562 O           53.3010    92.0190     7.2270 O             1 RES     
    7563 O           77.0870    62.3090    22.1080 O             1 RES     
    7564 O           92.6960    90.5310     3.8590 O             1 RES     
    7565 Si          67.0000    55.1450     8.0970 Si            1 RES     
    7566 O           97.1890    75.8760     6.4000 O             1 RES     
    7567 O           92.6210    68.3830    10.7470 O             1 RES     
    7568 O           80.8260    90.6190    18.9650 O             1 RES     
    7569 O           58.0760    65.1190     4.6190 O             1 RES     
    7570 Si          95.0950    88.4250    10.3500 Si            1 RES     
    7571 Si          66.1440    65.1990    18.1510 Si            1 RES     
    7572 Si          64.5440    80.7220    21.5790 Si            1 RES     
    7573 Si          62.9980    81.8610     7.7030 Si            1 RES     
    7574 O           68.4430    68.7220     8.4660 O             1 RES     
    7575 O           74.4370    66.7460     6.5860 O             1 RES     
    7576 Si          64.9540    62.9100     6.0530 Si            1 RES     
    7577 O           64.9650    68.7910     9.9840 O             1 RES     
    7578 OS          85.9080    58.2670    18.9550 OS            1 RES     
    7579 O           87.9870    94.9430    12.3720 O             1 RES     
    7580 Si          74.7280    76.1950    11.4530 Si            1 RES     
    7581 Si          60.5490    77.9210    22.6100 Si            1 RES     
    7582 O           97.3630    82.9210     8.3330 O             1 RES     
    7583 Si          91.9560    81.3980    20.2900 Si            1 RES     
    7584 O           82.0960    66.7640    11.4900 O             1 RES     
    7585 O           84.8860    97.1780    12.9650 O             1 RES     
    7586 O           62.7500    65.3170     3.5650 O             1 RES     
    7587 O           85.1600    91.7720     5.1760 O             1 RES     
    7588 O           66.4300    76.2200    18.7290 O             1 RES     
    7589 O           96.3020    93.3040     9.1230 O             1 RES     
    7590 O           65.8200    65.1530    27.4420 O             1 RES     
    7591 Si          70.9010    84.5070    16.9980 Si            1 RES     
    7592 O           71.4630    64.5980     8.6160 O             1 RES     
    7593 O           88.8250    97.9060     3.5560 O             1 RES     
    7594 O           81.5970    72.2610    15.3020 O             1 RES     
    7595 O           83.4650    51.9990     3.7860 O             1 RES     
    7596 Si          74.9460    87.5030    26.3700 Si            1 RES     
    7597 O           77.3030    64.6550     8.4230 O             1 RES     
    7598 O           82.2880    59.5090    18.0810 O             1 RES     
    7599 O           83.3310    62.4920    20.7080 O             1 RES     
    7600 Si          78.0700    87.3300    13.3640 Si            1 RES     
    7601 O           81.9870    59.5250    20.8110 O             1 RES     
    7602 O           62.3330    63.8560    19.3700 O             1 RES     
    7603 O           74.3010    77.5890    11.8080 O             1 RES     
    7604 O           79.2100    78.5980    14.2210 O             1 RES     
    7605 O           68.4060    97.3430    11.6440 O             1 RES     
    7606 O           56.4100    69.6400     5.3440 O             1 RES     
    7607 O           84.9020    68.5040    23.1070 O             1 RES     
    7608 O           69.7470    78.5850    12.9640 O             1 RES     
    7609 Si          86.2640    68.6930    27.0340 Si            1 RES     
    7610 Si          98.5780    69.7920     6.0330 Si            1 RES     
    7611 Si          63.2120    56.2720     4.4060 Si            1 RES     
    7612 Si          77.3840    73.5790    27.9870 Si            1 RES     
    7613 O           66.9790    65.5310    19.4680 O             1 RES     
    7614 Si          88.8670    93.7710     3.9090 Si            1 RES     
    7615 OS          60.8740    67.5830    24.3840 OS            1 RES     
    7616 O           84.2870    85.4110    18.2200 O             1 RES     
    7617 O           66.1730    85.9180     6.1790 O             1 RES     
    7618 Si          96.9800    52.9410     3.9820 Si            1 RES     
    7619 O           66.4210    98.9450     5.2640 O             1 RES     
    7620 Si          77.6330    65.9980    21.0360 Si            1 RES     
    7621 OS          76.6940    94.9590    15.1340 OS            1 RES     
    7622 OS          99.7980    88.4060    12.4830 OS            1 RES     
    7623 Si          78.4320    50.9860     9.0180 Si            1 RES     
    7624 Si          66.3400    80.5790    25.1450 Si            1 RES     
    7625 O           68.4220    78.3930    15.1580 O             1 RES     
    7626 O           53.7910    69.2340    12.2220 O             1 RES     
    7627 Si          87.3810    64.3720     9.2660 Si            1 RES     
    7628 OS          94.0600    75.6760    15.4720 OS            1 RES     
    7629 Si          78.2000    73.3710    19.7890 Si            1 RES     
    7630 O           89.6090    67.1140     4.7570 O             1 RES     
    7631 O           85.2470    87.3980    16.4170 O             1 RES     
    7632 O           68.9850    73.2030     4.9360 O             1 RES     
    7633 O           69.7390    84.1960    26.2000 O             1 RES     
    7634 O           83.3830    79.5890     8.6530 O             1 RES     
    7635 Si          56.5040    84.3540     3.6440 Si            1 RES     
    7636 O           77.0950    88.4120    14.2150 O             1 RES     
    7637 Si          86.0880    71.5990    28.0290 Si            1 RES     
    7638 O           75.3270    75.4350    18.8320 O             1 RES     
    7639 O           73.6290    87.7840    17.2270 O             1 RES     
    7640 Si          71.8010    73.4750    10.1490 Si            1 RES     
    7641 O           82.1880    52.9370    11.0530 O             1 RES     
    7642 O           98.2850    87.1040     8.2830 O             1 RES     
    7643 Si          74.6550    80.9490    22.6080 Si            1 RES     
    7644 OS          91.0400    52.3510    12.7430 OS            1 RES     
    7645 O           86.0410    80.6640    20.2600 O             1 RES     
    7646 O           71.6560    65.2860     2.4880 O             1 RES     
    7647 Si          73.6110    92.4730     6.8000 Si            1 RES     
    7648 O           71.3310    64.7470    26.8150 O             1 RES     
    7649 OS          91.6280    86.9360    17.5410 OS            1 RES     
    7650 Si          89.1900    74.7630     8.9630 Si            1 RES     
    7651 OS          73.5860    97.4960    12.0860 OS            1 RES     
    7652 O           60.7530    79.4300    16.4070 O             1 RES     
    7653 OS          85.6550    94.6830    12.9390 OS            1 RES     
    7654 O           88.8090    60.5150     5.0240 O             1 RES     
    7655 Si          74.0620    85.1490    14.2360 Si            1 RES     
    7656 Si          57.5450    67.4300    12.2700 Si            1 RES     
    7657 O           61.9280    60.0130     4.3980 O             1 RES     
    7658 O           79.4870    74.8820    15.0800 O             1 RES     
    7659 Si          82.0380    82.0720    21.0680 Si            1 RES     
    7660 O           82.0570    66.5370    18.4850 O             1 RES     
    7661 O           97.4460    62.9720    12.0550 O             1 RES     
    7662 O           66.4350    51.3450     6.4240 O             1 RES     
    7663 OS          65.1070    91.8100    14.3490 OS            1 RES     
    7664 Si          60.3130    61.8920    10.4020 Si            1 RES     
    7665 O           61.2070    82.3640    13.4470 O             1 RES     
    7666 Si          75.3060    65.6230    19.1260 Si            1 RES     
    7667 OS          82.8660    62.6020    26.4760 OS            1 RES     
    7668 O           73.7810    96.8420     3.9060 O             1 RES     
    7669 O           82.3080    90.5490    13.5250 O             1 RES     
    7670 Si          64.6130    89.8490    10.8620 Si            1 RES     
    7671 O           73.8970    75.3580    12.4800 O             1 RES     
    7672 OS          71.3460    88.3430    28.1760 OS            1 RES     
    7673 Si          59.0190    54.2510     4.0900 Si            1 RES     
    7674 O           75.1120    64.6520     5.4390 O             1 RES     
    7675 Si          94.0140    86.7140     7.7550 Si            1 RES     
    7676 OS          98.1550    60.7840    12.7930 OS            1 RES     
    7677 O           64.5800    60.1050    13.9600 O             1 RES     
    7678 O           80.2540    65.4520    12.2440 O             1 RES     
    7679 O           65.1430    89.4530     9.4470 O             1 RES     
    7680 O           78.7290    78.9280    18.0120 O             1 RES     
    7681 Si          76.1430    53.1790     5.5820 Si            1 RES     
    7682 O           50.4530    53.1480     6.2690 O             1 RES     
    7683 O           78.9770    79.0110    23.4650 O             1 RES     
    7684 O           96.8350    99.3910    10.9860 O             1 RES     
    7685 O           54.0590    86.5990     8.4880 O             1 RES     
    7686 Si          71.9700    64.8470     4.0010 Si            1 RES     
    7687 Si          55.4830    71.8870    10.9520 Si            1 RES     
    7688 O           62.9610    66.0130    12.0790 O             1 RES     
    7689 Si          68.5110    95.7810    11.1700 Si            1 RES     
    7690 O           76.1120    56.5300    13.1560 O             1 RES     
    7691 O           78.9550    61.6580     3.8450 O             1 RES     
    7692 O           74.4200    61.9720    25.7110 O             1 RES     
    7693 O           66.8570    54.4800     9.5660 O             1 RES     
    7694 O           62.2070    81.3180     6.4880 O             1 RES     
    7695 OS          72.6640    86.3410    28.7940 OS            1 RES     
    7696 Si          53.6610    97.9890     3.2660 Si            1 RES     
    7697 O           71.5930    69.4920    21.9380 O             1 RES     
    7698 O           52.3810    88.3960     9.2630 O             1 RES     
    7699 O           73.3750    79.3490    30.7840 O             1 RES     
    7700 O           66.4770    93.0330     5.4360 O             1 RES     
    7701 O           68.8940    64.6420    14.0900 O             1 RES     
    7702 O           58.4010    87.8400     9.9930 O             1 RES     
    7703 Si          63.3050    75.9660    24.1640 Si            1 RES     
    7704 Si          85.2360    76.0960     9.8200 Si            1 RES     
    7705 O           78.3920    95.5220     9.3080 O             1 RES     
    7706 Si          61.5660    88.7530    16.9640 Si            1 RES     
    7707 Si          58.7650    59.9060     8.6400 Si            1 RES     
    7708 O           72.8610    66.5610    26.6090 O             1 RES     
    7709 Si          81.1860    90.2060     4.6190 Si            1 RES     
    7710 O           83.9620    59.7730    11.3540 O             1 RES     
    7711 Si          79.8490    61.8670    19.5130 Si            1 RES     
    7712 O           66.7710    63.7820    17.7180 O             1 RES     
    7713 O           84.9280    84.4210    23.0210 O             1 RES     
    7714 Si          79.9290    88.9810    11.4220 Si            1 RES     
    7715 O           96.4470    95.4640     8.5700 O             1 RES     
    7716 O           53.8460    99.6770    12.4230 O             1 RES     
    7717 O           61.9350    76.3070    10.1220 O             1 RES     
    7718 Si          75.8890    66.3520    29.2300 Si            1 RES     
    7719 O           55.7980    75.0140    20.0490 O             1 RES     
    7720 O           84.7310    87.0780     7.2970 O             1 RES     
    7721 O           59.9940    82.7270     3.7510 O             1 RES     
    7722 OS          95.7050    62.9940    13.9360 OS            1 RES     
    7723 Si          68.4620    69.7870     7.3990 Si            1 RES     
    7724 O           61.2240    85.5340     6.4810 O             1 RES     
    7725 OS          67.1470    92.1700    21.2120 OS            1 RES     
    7726 O           93.9110    60.6470     6.2750 O             1 RES     
    7727 O           95.5200    86.9650     7.4450 O             1 RES     
    7728 O           92.3600    97.1630     6.9220 O             1 RES     
    7729 O           71.7830    63.9840    12.3470 O             1 RES     
    7730 O           64.0370    70.7230    23.3030 O             1 RES     
    7731 Si          70.8520    78.4550    26.0870 Si            1 RES     
    7732 O           72.1480    84.7660    21.6610 O             1 RES     
    7733 Si          64.1290    72.9800    14.7380 Si            1 RES     
    7734 Si          78.9720    75.9580    29.1950 Si            1 RES     
    7735 Si          88.2540    93.6100     8.9210 Si            1 RES     
    7736 O           67.5590    77.3140    12.9220 O             1 RES     
    7737 O           53.3950    61.3600    11.7150 O             1 RES     
    7738 Si          56.1610    54.5190     2.9570 Si            1 RES     
    7739 Si          85.9990    54.7990     5.4630 Si            1 RES     
    7740 O           81.9370    74.6540    15.5530 O             1 RES     
    7741 O           90.4460    58.8940    11.2490 O             1 RES     
    7742 Si          86.3780    58.7640     9.1110 Si            1 RES     
    7743 O           68.7600    74.9210    30.1020 O             1 RES     
    7744 Si          51.8180    77.6390    12.3530 Si            1 RES     
    7745 OS          97.8010    87.1470    12.8070 OS            1 RES     
    7746 O           56.0320    78.5880    14.6560 O             1 RES     
    7747 O           61.1920    95.1340    13.1630 O             1 RES     
    7748 Si          90.9120    69.1710    16.1260 Si            1 RES     
    7749 O           98.1120    97.4380    10.4120 O             1 RES     
    7750 OS          61.0140    69.3590    26.2270 OS            1 RES     
    7751 O           89.5130    70.8610     8.2070 O             1 RES     
    7752 O           86.7080    71.3570    29.4400 O             1 RES     
    7753 O           57.0610    53.7190    13.2660 O             1 RES     
    7754 O           76.4280    84.1630    11.4740 O             1 RES     
    7755 O           67.0990    80.1800    29.0940 O             1 RES     
    7756 Si          83.3770    53.5300     3.4640 Si            1 RES     
    7757 Si          69.7020    69.8290    22.2470 Si            1 RES     
    7758 O           66.2090    78.5900     2.5190 O             1 RES     
    7759 O           86.1180    98.2970     8.6890 O             1 RES     
    7760 O           96.7490    67.9500     3.0500 O             1 RES     
    7761 OS          67.6140    88.7230    24.1960 OS            1 RES     
    7762 O           91.6860    92.9810     6.6740 O             1 RES     
    7763 O           87.4760    62.5040     5.3120 O             1 RES     
    7764 Si          74.7900    63.2300     6.2040 Si            1 RES     
    7765 OS          88.1530    54.6200    13.3710 OS            1 RES     
    7766 O           59.6770    82.6350    11.3050 O             1 RES     
    7767 Si          83.9690    72.8690     3.4780 Si            1 RES     
    7768 O           93.9820    87.9620     9.3120 O             1 RES     
    7769 Si          62.2740    84.9140     7.4100 Si            1 RES     
    7770 O           75.2180    59.2880    16.9420 O             1 RES     
    7771 O           75.0010    68.4920    11.1670 O             1 RES     
    7772 O           52.7600    74.2130    10.4020 O             1 RES     
    7773 O           92.9580    76.1660    11.8200 O             1 RES     
    7774 O           95.1440    64.4450    11.7480 O             1 RES     
    7775 Si          90.0110    89.8830     8.6920 Si            1 RES     
    7776 O           80.9400    76.7240    14.3070 O             1 RES     
    7777 O           54.8870    80.6080    12.7110 O             1 RES     
    7778 Si          79.8400    55.9120    14.2460 Si            1 RES     
    7779 O           86.7400    79.8300     5.2550 O             1 RES     
    7780 Si          79.8710    68.9050    26.5730 Si            1 RES     
    7781 O           74.5610    72.3930    19.1970 O             1 RES     
    7782 Si          66.6150    94.7830     8.8650 Si            1 RES     
    7783 O           91.8300    74.3930    15.7600 O             1 RES     
    7784 O           78.7860    80.2530    21.3980 O             1 RES     
    7785 Si          60.6130    78.6500    15.0900 Si            1 RES     
    7786 O           64.1100    61.8590     9.6930 O             1 RES     
    7787 O           52.0850    94.1560     6.4310 O             1 RES     
    7788 Si          82.4220    66.7620    15.0590 Si            1 RES     
    7789 Si          89.0470    95.4520    11.2560 Si            1 RES     
    7790 O           64.4660    79.1920    22.1600 O             1 RES     
    7791 O           66.7750    69.6360    19.0550 O             1 RES     
    7792 Si          96.1120    92.6170    10.5030 Si            1 RES     
    7793 Si          65.9470    52.3680     7.5480 Si            1 RES     
    7794 O           75.2060    92.6260    21.8890 O             1 RES     
    7795 O           59.2800    73.5000     7.5290 O             1 RES     
    7796 O           90.7000    84.4120    12.2590 O             1 RES     
    7797 Si          78.0000    74.4440    14.9810 Si            1 RES     
    7798 OS          87.3970    99.2820    10.3440 OS            1 RES     
    7799 O           77.2990    59.9210     4.3170 O             1 RES     
    7800 OS          88.9710    88.8380    14.4190 OS            1 RES     
    7801 Si          90.0920    86.9380    17.7100 Si            1 RES     
    7802 O           68.9860    64.5180    20.6790 O             1 RES     
    7803 O           97.5000    67.2100     9.6140 O             1 RES     
    7804 Si          79.4950    68.1090    19.8320 Si            1 RES     
    7805 O           60.7770    90.0520     8.7900 O             1 RES     
    7806 Si          75.3150    72.9590    22.7380 Si            1 RES     
    7807 O           67.1220    69.9280    13.5530 O             1 RES     
    7808 Si          74.9320    74.8970     5.9010 Si            1 RES     
    7809 Si          96.2280    86.8130    12.7060 Si            1 RES     
    7810 O           67.5710    57.1020    13.6460 O             1 RES     
    7811 O           79.3400    78.1780    25.8710 O             1 RES     
    7812 O           72.3460    80.6710    28.7740 O             1 RES     
    7813 O           53.9580    81.7320     3.9260 O             1 RES     
    7814 O           80.0340    98.1820     5.4990 O             1 RES     
    7815 O           83.1420    87.6510    17.5470 O             1 RES     
    7816 OS          81.7680    74.7170    32.1830 OS            1 RES     
    7817 Si          74.3240    63.4920    17.0810 Si            1 RES     
    7818 O           76.8790    72.9930    22.8330 O             1 RES     
    7819 OS          71.3630    62.9240    28.7720 OS            1 RES     
    7820 Si          63.4320    77.8980    13.9180 Si            1 RES     
    7821 O           86.8910    75.4510    25.5380 O             1 RES     
    7822 Si          52.3960    50.3410    12.1610 Si            1 RES     
    7823 Si          51.3740    74.8670    10.7920 Si            1 RES     
    7824 O           82.8560    64.0160     5.4360 O             1 RES     
    7825 OS          72.9640    92.6910    23.1680 OS            1 RES     
    7826 Si          60.6450    64.5730    14.5960 Si            1 RES     
    7827 O           55.0360    82.8140    11.2680 O             1 RES     
    7828 O           54.3950    51.0660     5.6080 O             1 RES     
    7829 Si          61.4700    64.6680     9.6650 Si            1 RES     
    7830 O           95.4260    62.4360     7.7160 O             1 RES     
    7831 O           65.6400    66.4130    25.2150 O             1 RES     
    7832 Si          89.5160    83.9090    11.3150 Si            1 RES     
    7833 O           92.7260    95.9040    11.9400 O             1 RES     
    7834 OS          71.7830    55.7500    13.3060 OS            1 RES     
    7835 O           53.4140    90.7410     9.3500 O             1 RES     
    7836 O           79.9820    63.5670    16.5520 O             1 RES     
    7837 O           84.3490    82.3610     3.7950 O             1 RES     
    7838 OS          54.0670    95.7170    13.0380 OS            1 RES     
    7839 Si          66.5370    86.6700    17.0420 Si            1 RES     
    7840 O           77.8180    77.0580    29.3270 O             1 RES     
    7841 O           66.5320    75.6030    11.2150 O             1 RES     
    7842 O           58.3430    90.2150     9.8420 O             1 RES     
    7843 OS          58.1060    81.0260    21.3400 OS            1 RES     
    7844 O           54.0360    75.3720     8.7120 O             1 RES     
    7845 O           60.1090    71.3890    25.0480 O             1 RES     
    7846 O           80.6800    95.8030     9.3590 O             1 RES     
    7847 O           60.0900    60.7120     6.1550 O             1 RES     
    7848 O           69.1940    67.1920     5.2050 O             1 RES     
    7849 O           63.4430    85.9500    22.4000 O             1 RES     
    7850 O           87.1160    98.2080    12.3700 O             1 RES     
    7851 O           71.3010    74.0450    16.2710 O             1 RES     
    7852 Si          61.3670    66.3290    12.1810 Si            1 RES     
    7853 O           71.0180    72.6280    14.1260 O             1 RES     
    7854 O           85.5170    99.9290     1.5800 O             1 RES     
    7855 O           53.1960    63.4610     3.7560 O             1 RES     
    7856 O           85.2550    74.6360    17.6060 O             1 RES     
    7857 Si          84.4950    86.9120    17.7740 Si            1 RES     
    7858 Si          74.6180    65.4760    14.8180 Si            1 RES     
    7859 O           54.0060    80.3250     6.5690 O             1 RES     
    7860 Si          67.2930    81.3240    28.0140 Si            1 RES     
    7861 O           89.3020    50.3220     2.5230 O             1 RES     
    7862 Si          72.0960    63.9660    27.9480 Si            1 RES     
    7863 O           76.3980    65.5880    20.1780 O             1 RES     
    7864 Si          89.5480    84.3190     5.9030 Si            1 RES     
    7865 Si          69.5940    68.6870     4.7920 Si            1 RES     
    7866 O           65.5400    61.8900    12.5810 O             1 RES     
    7867 Si          64.4500    89.5190    20.3810 Si            1 RES     
    7868 Si          53.2760    72.0430     6.8940 Si            1 RES     
    7869 O           54.7160    94.8320     2.2930 O             1 RES     
    7870 Si          66.4430    53.1290    10.4140 Si            1 RES     
    7871 Si          73.6110    64.5430    23.6030 Si            1 RES     
    7872 O           78.5700    71.4530    25.4280 O             1 RES     
    7873 O           84.7450    70.4650     6.8190 O             1 RES     
    7874 O           72.5070    65.3980    28.6770 O             1 RES     
    7875 O           81.7530    74.2980    24.6670 O             1 RES     
    7876 O           92.7410    99.4860     7.9210 O             1 RES     
    7877 O           75.3040    82.1690    21.8730 O             1 RES     
    7878 O           59.6600    75.8890     8.2980 O             1 RES     
    7879 Si          64.1900    90.4600     5.9330 Si            1 RES     
    7880 O           52.1890    57.9920     5.7940 O             1 RES     
    7881 O           61.0450    68.5530    21.8210 O             1 RES     
    7882 O           66.4940    71.9160    12.0070 O             1 RES     
    7883 O           58.7360    73.7110    12.1360 O             1 RES     
    7884 Si          76.3750    83.2150    21.3080 Si            1 RES     
    7885 O           85.1370    89.6600    20.3340 O             1 RES     
    7886 O           63.5230    71.9240    15.8210 O             1 RES     
    7887 Si          86.4170    75.5200    16.9820 Si            1 RES     
    7888 O           59.6740    53.0890     7.3500 O             1 RES     
    7889 Si          95.4850    52.3080     9.1260 Si            1 RES     
    7890 O           84.5530    51.7420     7.1130 O             1 RES     
    7891 O           85.6730    82.5790    18.6020 O             1 RES     
    7892 Si          97.6950    96.8240     4.1620 Si            1 RES     
    7893 Si          71.6450    83.4000    20.8730 Si            1 RES     
    7894 OS          92.5580    85.6650    13.9000 OS            1 RES     
    7895 O           59.0590    70.8270    17.5610 O             1 RES     
    7896 O           59.0940    81.8780     9.0570 O             1 RES     
    7897 O           82.8540    61.6640    10.2560 O             1 RES     
    7898 O           89.9370    62.6720     5.1830 O             1 RES     
    7899 Si          70.8070    61.4980    19.4040 Si            1 RES     
    7900 O           92.7870    57.5880     3.9020 O             1 RES     
    7901 OS          91.5110    94.6970    13.8950 OS            1 RES     
    7902 Si          76.5930    69.4590    14.7560 Si            1 RES     
    7903 OS          76.5560    94.9300    17.7080 OS            1 RES     
    7904 Si          53.5110    76.4870     7.6910 Si            1 RES     
    7905 Si          83.1190    81.9260    14.0560 Si            1 RES     
    7906 O           78.0830    69.4000    14.1250 O             1 RES     
    7907 Si          95.3360    98.4560     5.2530 Si            1 RES     
    7908 O           65.0890    66.2570    10.7830 O             1 RES     
    7909 O           51.7470    75.2300     4.6450 O             1 RES     
    7910 O           64.9400    75.4760    28.6720 O             1 RES     
    7911 O           70.2430    99.6870    11.9420 O             1 RES     
    7912 Si          77.3720    83.3950    28.0880 Si            1 RES     
    7913 O           90.4130    74.7200    21.9810 O             1 RES     
    7914 OS          79.1170    70.9140    31.9210 OS            1 RES     
    7915 OS          56.4810    76.5890    21.9040 OS            1 RES     
    7916 O           62.5190    71.0590    25.4520 O             1 RES     
    7917 Si          51.9550    92.6290     6.7790 Si            1 RES     
    7918 Si          71.5380    53.5220     7.4470 Si            1 RES     
    7919 O           67.2980    95.0130    10.2930 O             1 RES     
    7920 O           77.3790    76.9080    18.7190 O             1 RES     
    7921 O           64.1450    89.2150     6.8920 O             1 RES     
    7922 O           60.4990    69.3050     7.6740 O             1 RES     
    7923 O           82.8330    67.1280    28.4030 O             1 RES     
    7924 Si          64.9070    57.2060     6.9330 Si            1 RES     
    7925 Si          73.6330    60.4640    20.2000 Si            1 RES     
    7926 OS          82.4800    59.1750    23.3350 OS            1 RES     
    7927 O           85.9940    78.8700    14.4490 O             1 RES     
    7928 Si          77.0420    80.5070    27.1040 Si            1 RES     
    7929 O           85.6930    72.0440    18.0870 O             1 RES     
    7930 Si          78.6810    75.7310     9.3460 Si            1 RES     
    7931 O           85.3300    80.3750     2.9760 O             1 RES     
    7932 Si          58.6830    93.2050     7.6990 Si            1 RES     
    7933 O           88.5030    63.0000    19.5660 O             1 RES     
    7934 O           64.0870    79.7210     3.3030 O             1 RES     
    7935 O           69.1870    71.2940    12.9720 O             1 RES     
    7936 O           83.0820    72.8120    10.2330 O             1 RES     
    7937 O           97.5190    86.2220     3.8790 O             1 RES     
    7938 Si          78.5250    56.5820    10.1990 Si            1 RES     
    7939 O           60.7470    86.0950    11.4710 O             1 RES     
    7940 Si          97.4500    67.4220     4.3660 Si            1 RES     
    7941 O           79.6980    84.7750    16.4860 O             1 RES     
    7942 O           78.1610    65.8470     6.3670 O             1 RES     
    7943 OS          51.1650    72.8170    14.2730 OS            1 RES     
    7944 O           70.9420    85.2100    13.7210 O             1 RES     
    7945 Si          64.4450    61.2220    21.1370 Si            1 RES     
    7946 O           94.8110    50.9100     8.5730 O             1 RES     
    7947 O           82.7540    90.0190    20.2600 O             1 RES     
    7948 O           77.6350    82.3990    20.8650 O             1 RES     
    7949 O           68.5750    77.3960     6.6910 O             1 RES     
    7950 Si          76.7370    64.8820    26.6470 Si            1 RES     
    7951 O           76.1090    53.3020     3.9990 O             1 RES     
    7952 Si          92.6060    84.7230     9.4340 Si            1 RES     
    7953 Si          95.3720    60.9610     7.0310 Si            1 RES     
    7954 O           79.3300    69.2360    25.0010 O             1 RES     
    7955 Si          77.9290    91.6210    16.6050 Si            1 RES     
    7956 O           72.5860    79.5690     3.9380 O             1 RES     
    7957 Si          72.7510    82.3970    13.7560 Si            1 RES     
    7958 OS          96.9910    58.4630    12.3190 OS            1 RES     
    7959 Si          90.2970    81.3540     6.4800 Si            1 RES     
    7960 Si          56.0960    83.9830    10.8440 Si            1 RES     
    7961 O           62.7440    80.9830     8.8940 O             1 RES     
    7962 Si          75.8650    76.5760    15.4990 Si            1 RES     
    7963 O           96.1210    51.2430    12.8700 O             1 RES     
    7964 O           62.4370    87.6520    17.7080 O             1 RES     
    7965 O           76.2930    80.5420     3.2220 O             1 RES     
    7966 Si          66.1050    60.1700    16.9760 Si            1 RES     
    7967 O           64.3820    88.6430    19.1360 O             1 RES     
    7968 O           74.6990    75.6840    14.8190 O             1 RES     
    7969 O           57.8820    74.5560     9.3200 O             1 RES     
    7970 O           77.0360    72.2950     8.3600 O             1 RES     
    7971 O           75.2950    50.7040    10.3780 O             1 RES     
    7972 Si          74.9280    67.5040     7.8380 Si            1 RES     
    7973 O           98.6180    54.1440    10.7340 O             1 RES     
    7974 O           75.6520    78.5460     7.8160 O             1 RES     
    7975 O           69.8470    74.9840     6.4890 O             1 RES     
    7976 Si          91.6370    62.8030    10.9200 Si            1 RES     
    7977 Si          85.3520    51.3890    12.1150 Si            1 RES     
    7978 Si          96.8970    87.7350     7.7620 Si            1 RES     
    7979 O           73.7420    60.0790    18.6590 O             1 RES     
    7980 O           76.2440    57.4510     2.2640 O             1 RES     
    7981 Si          68.6440    63.0040    20.9540 Si            1 RES     
    7982 O           55.3780    85.8640     6.8210 O             1 RES     
    7983 O           72.0460    67.8350    18.5020 O             1 RES     
    7984 Si          79.6910    60.9870    13.0470 Si            1 RES     
    7985 O           95.1740    77.8150     2.8680 O             1 RES     
    7986 Si          93.8770    77.3760    11.5510 Si            1 RES     
    7987 Si          61.7030    88.3260    14.0660 Si            1 RES     
    7988 Si          62.5270    58.5340     8.2720 Si            1 RES     
    7989 O           53.5620    78.0480     7.7900 O             1 RES     
    7990 O           55.2150    72.8920     2.7460 O             1 RES     
    7991 O           96.5290    72.0670     9.2400 O             1 RES     
    7992 Si          63.1480    65.3560     5.0550 Si            1 RES     
    7993 O           70.4680    60.8520    24.6470 O             1 RES     
    7994 OS          94.5740    73.3020    15.5270 OS            1 RES     
    7995 Si          65.3540    69.4420    27.2630 Si            1 RES     
    7996 O           67.3170    71.4450    17.4070 O             1 RES     
    7997 O           82.9080    73.7610    26.8160 O             1 RES     
    7998 O           74.9450    79.7810    11.9010 O             1 RES     
    7999 O           50.0590    67.7840     9.3110 O             1 RES     
    8000 Si          74.1270    91.8190    22.6930 Si            1 RES     
    8001 Si          73.0310    69.0740    18.4190 Si            1 RES     
    8002 O           69.1170    63.8090     9.2550 O             1 RES     
    8003 O           54.0670    87.3420     4.9070 O             1 RES     
    8004 O           86.9140    60.2500     9.4460 O             1 RES     
    8005 O           85.5640    56.3480     5.5660 O             1 RES     
    8006 O           79.1860    88.1350    12.6570 O             1 RES     
    8007 Si          81.8730    87.3300     3.6020 Si            1 RES     
    8008 O           92.7740    53.8650     8.6890 O             1 RES     
    8009 O           86.2550    76.7060     8.7730 O             1 RES     
    8010 Si          64.0130    65.1700    11.1740 Si            1 RES     
    8011 OS          53.7870    66.7630    12.8830 OS            1 RES     
    8012 O           75.4310    84.6270    14.8470 O             1 RES     
    8013 Si          98.5450    55.0490    12.0960 Si            1 RES     
    8014 Si          72.1770    65.5760    12.9460 Si            1 RES     
    8015 Si          80.7570    78.2600    14.2650 Si            1 RES     
    8016 O           90.6880    72.2130     4.0540 O             1 RES     
    8017 Si          89.0030    72.0080    23.2880 Si            1 RES     
    8018 O           72.9930    59.2750    20.9920 O             1 RES     
    8019 O           73.5790    85.9590    15.4950 O             1 RES     
    8020 O           64.5790    82.1970     7.4600 O             1 RES     
    8021 Si          84.1030    73.8990    27.9250 Si            1 RES     
    8022 O           90.8770    88.5600     8.8240 O             1 RES     
    8023 Si          80.0510    69.2360     5.0320 Si            1 RES     
    8024 O           82.2550    58.4950     2.8570 O             1 RES     
    8025 O           65.2440    79.3410    25.1480 O             1 RES     
    8026 OS          54.7130    76.7870    15.2160 OS            1 RES     
    8027 Si          60.2670    70.7780    14.2660 Si            1 RES     
    8028 O           84.4760    80.9950    14.3700 O             1 RES     
    8029 O           95.1300    82.9420     1.8010 O             1 RES     
    8030 O           73.0200    82.1490    12.2200 O             1 RES     
    8031 Si          85.9620    88.3320    20.1620 Si            1 RES     
    8032 Si          56.2410    93.4290     9.5200 Si            1 RES     
    8033 O           65.6970    81.8820    21.3650 O             1 RES     
    8034 OS          72.2600    56.9260    21.2770 OS            1 RES     
    8035 O           69.8670    61.9880    20.5810 O             1 RES     
    8036 Si          76.1320    77.2990     4.2450 Si            1 RES     
    8037 Si          75.5830    84.6010    25.9120 Si            1 RES     
    8038 Si          90.1750    82.5320    14.8590 Si            1 RES     
    8039 O           89.7030    93.2250     8.3650 O             1 RES     
    8040 O           58.5980    96.3720     2.2240 O             1 RES     
    8041 O           59.7150    75.8450    16.8290 O             1 RES     
    8042 O           70.9000    89.4620    20.8380 O             1 RES     
    8043 Si          84.6490    53.1510     7.7220 Si            1 RES     
    8044 O           65.1550    61.3100     5.9300 O             1 RES     
    8045 O           73.7020    62.9990    23.6320 O             1 RES     
    8046 O           72.8150    60.6420    24.1730 O             1 RES     
    8047 Si          55.3720    60.0700     4.4590 Si            1 RES     
    8048 Si          83.0050    62.9220    22.5020 Si            1 RES     
    8049 Si          61.8040    83.5990    14.2240 Si            1 RES     
    8050 O           92.3490    57.4910    12.1660 O             1 RES     
    8051 O           65.4210    90.4660    12.0290 O             1 RES     
    8052 Si          75.1190    73.5780    18.3360 Si            1 RES     
    8053 OS          73.0010    93.0200    17.7250 OS            1 RES     
    8054 O           55.0060    54.4480     4.0530 O             1 RES     
    8055 OS          78.4460    59.7790    24.7730 OS            1 RES     
    8056 O           69.4280    95.2850     5.8050 O             1 RES     
    8057 Si          87.0010    77.9020    15.1930 Si            1 RES     
    8058 O           94.4440    96.5930    10.0370 O             1 RES     
    8059 O           99.3310    82.3570     9.5320 O             1 RES     
    8060 Si          61.1370    79.4100    17.9550 Si            1 RES     
    8061 O           80.1120    76.0840     8.9200 O             1 RES     
    8062 O           73.1640    72.4060    25.6230 O             1 RES     
    8063 O           60.4160    51.0990     2.8170 O             1 RES     
    8064 O           87.0190    74.3290    16.1140 O             1 RES     
    8065 O           55.6430    84.8800     9.6260 O             1 RES     
    8066 O           60.6130    79.6900     9.5080 O             1 RES     
    8067 O           88.9430    80.5190     6.3560 O             1 RES     
    8068 O           60.5100    58.1880     5.4640 O             1 RES     
    8069 O           68.0080    99.7870    12.4920 O             1 RES     
    8070 Si          67.4750    72.9850    17.7260 Si            1 RES     
    8071 O           76.9380    57.6780    18.1290 O             1 RES     
    8072 O           79.9750    68.5390     6.4630 O             1 RES     
    8073 Si          93.5010    56.3350    12.2980 Si            1 RES     
    8074 O           89.5050    64.9540    18.3230 O             1 RES     
    8075 O           81.0460    83.8030     5.5130 O             1 RES     
    8076 O           58.9270    61.8520    11.1040 O             1 RES     
    8077 O           72.6540    50.6510     6.3860 O             1 RES     
    8078 Si          83.8600    69.3290    22.2250 Si            1 RES     
    8079 O           95.1230    82.2190     9.7350 O             1 RES     
    8080 O           65.4250    58.6330     6.4840 O             1 RES     
    8081 O           74.3040    83.2740     3.2250 O             1 RES     
    8082 O           99.8890    63.0660     8.7600 O             1 RES     
    8083 O           90.0490    65.2710    20.5150 O             1 RES     
    8084 O           62.5340    70.3280    21.2210 O             1 RES     
    8085 Si          58.1590    61.0630     5.8820 Si            1 RES     
    8086 Si          59.7230    56.6800    12.0750 Si            1 RES     
    8087 O           76.6590    65.6160    25.2490 O             1 RES     
    8088 Si          78.4790    58.4120     7.7260 Si            1 RES     
    8089 Si          50.5120    57.5370    12.0020 Si            1 RES     
    8090 O           59.6710    55.6550     4.5980 O             1 RES     
    8091 O           63.4000    74.3310    15.2050 O             1 RES     
    8092 O           50.6430    96.6160     2.2410 O             1 RES     
    8093 O           61.0690    62.9990    14.4340 O             1 RES     
    8094 O           97.4550    63.8010     8.3070 O             1 RES     
    8095 O           68.8750    75.6890    11.5620 O             1 RES     
    8096 Si          59.6420    79.2860     3.6580 Si            1 RES     
    8097 O           56.7420    77.7270     7.4510 O             1 RES     
    8098 Si          57.3690    61.2960    10.8940 Si            1 RES     
    8099 O           81.9450    88.3100    15.3200 O             1 RES     
    8100 Si          80.6730    82.5360     9.5370 Si            1 RES     
    8101 OS          94.2060    73.9020    19.4920 OS            1 RES     
    8102 O           77.3260    59.9180    22.4050 O             1 RES     
    8103 O           74.5840    80.2250    16.1190 O             1 RES     
    8104 O           62.3410    83.3180     7.6750 O             1 RES     
    8105 Si          55.5320    86.0130     8.4250 Si            1 RES     
    8106 Si          73.0290    93.0570    11.1760 Si            1 RES     
    8107 Si          70.3550    70.1860    27.4820 Si            1 RES     
    8108 Si          90.9590    58.1710     7.5530 Si            1 RES     
    8109 OS          69.6480    98.2890    13.7740 OS            1 RES     
    8110 O           84.4150    72.6970     5.0520 O             1 RES     
    8111 O           71.5930    53.0260     9.0560 O             1 RES     
    8112 Si          85.2580    64.0110    11.5060 Si            1 RES     
    8113 O           65.8700    82.0780     9.6110 O             1 RES     
    8114 O           77.1660    68.1990     2.9840 O             1 RES     
    8115 O           52.9420    79.6550     4.5650 O             1 RES     
    8116 Si          75.2930    60.2740    13.0130 Si            1 RES     
    8117 Si          91.6730    93.7280     5.2710 Si            1 RES     
    8118 O           89.1920    50.5770     7.9150 O             1 RES     
    8119 O           62.7510    69.8360     9.1320 O             1 RES     
    8120 OS          82.4100    85.4730    27.2120 OS            1 RES     
    8121 O           71.9460    92.2760    10.3200 O             1 RES     
    8122 Si          77.4560    93.7230    14.4830 Si            1 RES     
    8123 O           64.1980    88.2730     2.9000 O             1 RES     
    8124 Si          68.3980    65.9010    20.0150 Si            1 RES     
    8125 O           72.6260    86.9100    13.1670 O             1 RES     
    8126 O           81.2910    73.9830    17.6940 O             1 RES     
    8127 Si          61.5020    69.3470    20.5670 Si            1 RES     
    8128 O           64.4700    62.5290    14.5470 O             1 RES     
    8129 Si          66.6470    85.3060    23.0610 Si            1 RES     
    8130 Si          82.7010    89.1420    14.1330 Si            1 RES     
    8131 Si          65.9120    90.6950    13.5120 Si            1 RES     
    8132 Si          57.9620    67.0970    17.0050 Si            1 RES     
    8133 O           79.3360    82.1020     8.8840 O             1 RES     
    8134 O           99.7930    60.4860     8.6050 O             1 RES     
    8135 O           71.5280    58.7600    23.1760 O             1 RES     
    8136 O           76.2920    62.6820     9.6340 O             1 RES     
    8137 O           59.8200    75.0990    10.5220 O             1 RES     
    8138 Si          77.4390    69.6000     3.5680 Si            1 RES     
    8139 O           56.6230    64.8530     6.6910 O             1 RES     
    8140 O           58.6230    99.0540    10.4420 O             1 RES     
    8141 Si          72.8800    69.8920    29.1040 Si            1 RES     
    8142 O           94.8180    76.8060    10.4470 O             1 RES     
    8143 O           61.7380    59.5000     1.6330 O             1 RES     
    8144 O           97.2400    96.8150     2.7000 O             1 RES     
    8145 O           89.5630    87.0660    16.2390 O             1 RES     
    8146 O           84.5170    74.8560     9.2050 O             1 RES     
    8147 O           70.2360    59.1000    10.6340 O             1 RES     
    8148 O           82.3420    71.8730    12.6260 O             1 RES     
    8149 Si          75.7150    91.7100     2.8710 Si            1 RES     
    8150 O           84.9960    69.4610     9.2060 O             1 RES     
    8151 Si          91.4990    69.5180    11.1150 Si            1 RES     
    8152 Si          65.2730    60.2900    12.5260 Si            1 RES     
    8153 O           86.2120    68.2560     7.4380 O             1 RES     
    8154 O           79.3970    86.5730     9.2700 O             1 RES     
    8155 Si          72.5850    60.3320    14.4360 Si            1 RES     
    8156 O           55.0300    73.2810    10.2570 O             1 RES     
    8157 O           84.1750    66.7070    19.6240 O             1 RES     
    8158 Si          50.3920    92.2210     4.1890 Si            1 RES     
    8159 Si          89.7390    64.1050    19.5460 Si            1 RES     
    8160 O           99.4230    68.8260    12.6940 O             1 RES     
    8161 O           77.1160    77.9850     5.1480 O             1 RES     
    8162 Si          58.2650    90.9430     4.4180 Si            1 RES     
    8163 O           66.1570    73.6180    18.3880 O             1 RES     
    8164 O           89.4580    73.9800    15.7290 O             1 RES     
    8165 O           68.2790    69.1480    22.0680 O             1 RES     
    8166 O           91.1300    72.0980     6.6650 O             1 RES     
    8167 O           74.0990    66.0420    19.9670 O             1 RES     
    8168 OS          87.0220    58.5820    16.7760 OS            1 RES     
    8169 Si          69.8310    83.1210    27.4290 Si            1 RES     
    8170 OS          94.2080    67.9240    13.6000 OS            1 RES     
    8171 O           75.3030    88.6460    20.7440 O             1 RES     
    8172 O           95.5570    81.9600     4.3400 O             1 RES     
    8173 O           88.7650    77.9810    18.3040 O             1 RES     
    8174 O           50.1660    69.6860     6.1490 O             1 RES     
    8175 Si          83.2720    58.2920    11.3850 Si            1 RES     
    8176 O           72.7000    50.6170     4.0170 O             1 RES     
    8177 O           63.0960    97.7250     5.9260 O             1 RES     
    8178 Si          72.7790    51.7000     2.8520 Si            1 RES     
    8179 O           66.3630    63.3470     5.6630 O             1 RES     
    8180 O           80.9870    98.2450    10.0420 O             1 RES     
    8181 Si          70.6260    70.6710    17.2950 Si            1 RES     
    8182 O           87.2390    99.7590     3.5030 O             1 RES     
    8183 Si          80.8900    66.7310     3.3720 Si            1 RES     
    8184 O           72.7080    68.4210    28.4760 O             1 RES     
    8185 O           76.4990    94.3450     9.2110 O             1 RES     
    8186 Si          65.4730    69.2010    19.9140 Si            1 RES     
    8187 O           99.2220    76.2600     7.9750 O             1 RES     
    8188 O           83.9070    81.6450     7.3760 O             1 RES     
    8189 O           93.4510    65.8270    10.1300 O             1 RES     
    8190 Si          96.0430    75.0580     5.6030 Si            1 RES     
    8191 O           71.0490    86.3560    26.6820 O             1 RES     
    8192 O           51.8810    76.1950     7.7000 O             1 RES     
    8193 O           67.3560    52.2180    11.3970 O             1 RES     
    8194 O           57.1550    67.3080     4.0380 O             1 RES     
    8195 Si          92.4350    60.2010     5.9260 Si            1 RES     
    8196 O           79.9510    85.8100    19.2440 O             1 RES     
    8197 Si          90.6900    53.0210    11.3890 Si            1 RES     
    8198 O           76.9760    67.4730    29.2720 O             1 RES     
    8199 OS          76.2070    56.2940    20.3150 OS            1 RES     
    8200 O           69.3480    50.7980     2.3270 O             1 RES     
    8201 Si          55.6850    79.3760    13.3250 Si            1 RES     
    8202 O           69.9280    79.8800    10.9250 O             1 RES     
    8203 O           69.4570    70.9430     7.8900 O             1 RES     
    8204 O           60.7040    63.2600     9.7220 O             1 RES     
    8205 Si          56.2730    77.3550    15.5360 Si            1 RES     
    8206 OS          93.4860    81.1970    19.8670 OS            1 RES     
    8207 O           67.6980    73.8150    16.4590 O             1 RES     
    8208 Si          50.4770    51.6020     5.9420 Si            1 RES     
    8209 O           59.4100    51.3120    10.7100 O             1 RES     
    8210 Si          68.7360    67.6360     9.5480 Si            1 RES     
    8211 O           67.4540    68.6000    16.9850 O             1 RES     
    8212 Si          59.0610    76.0480    15.4090 Si            1 RES     
    8213 O           55.7520    97.8330    12.9800 O             1 RES     
    8214 O           69.8340    57.1440     8.9810 O             1 RES     
    8215 Si          68.1230    58.5540     3.6600 Si            1 RES     
    8216 O           87.3590    68.4670    23.8270 O             1 RES     
    8217 O           71.7900    78.3800    18.7910 O             1 RES     
    8218 Si          58.9940    83.1040    10.0430 Si            1 RES     
    8219 O           85.6350    87.2760     4.9160 O             1 RES     
    8220 O           93.9320    80.7370     6.0400 O             1 RES     
    8221 Si          60.3410    86.8300     3.1460 Si            1 RES     
    8222 O           80.0060    84.1070    13.8750 O             1 RES     
    8223 OS          68.5410    58.1310    19.7680 OS            1 RES     
    8224 O           83.7480    83.1240    13.3250 O             1 RES     
    8225 Si          57.3310    93.7630     4.9050 Si            1 RES     
    8226 O           62.4480    73.4040     3.5910 O             1 RES     
    8227 O           96.8580    91.0190     2.4920 O             1 RES     
    8228 O           82.1670    61.4700    22.6600 O             1 RES     
    8229 Si          61.1820    70.0760     8.8680 Si            1 RES     
    8230 Si          76.8970    82.7770    12.0530 Si            1 RES     
    8231 O           59.5190    79.2930    14.2260 O             1 RES     
    8232 Si          76.7620    56.1980    14.6850 Si            1 RES     
    8233 O           81.1770    88.7570     3.8720 O             1 RES     
    8234 O           86.2900    76.8510    16.0270 O             1 RES     
    8235 Si          78.4120    73.0210    22.7840 Si            1 RES     
    8236 O           92.7610    86.9040     6.8720 O             1 RES     
    8237 O           50.1790    95.8030    11.0080 O             1 RES     
    8238 O           65.3960    73.7500    22.8350 O             1 RES     
    8239 O           67.4690    87.6000    17.9780 O             1 RES     
    8240 O           77.0280    66.3440    22.5510 O             1 RES     
    8241 OS          60.1600    79.9410    26.0970 OS            1 RES     
    8242 O           60.6860    75.5960    19.2660 O             1 RES     
    8243 O           66.6130    61.1690    18.0540 O             1 RES     
    8244 O           64.9690    89.8680     4.7060 O             1 RES     
    8245 O           59.7750    80.5060     2.5650 O             1 RES     
    8246 O           87.9580    72.1900    16.9450 O             1 RES     
    8247 Si          76.2080    85.7160    11.4330 Si            1 RES     
    8248 O           81.9000    62.8210    15.0330 O             1 RES     
    8249 O           83.8200    51.8110    12.2470 O             1 RES     
    8250 O           80.9800    72.3680    26.1340 O             1 RES     
    8251 O           62.7080    79.4610    18.1700 O             1 RES     
    8252 O           82.2410    74.6310     8.4590 O             1 RES     
    8253 O           94.9250    56.9980    12.2900 O             1 RES     
    8254 Si          60.0470    56.9750     9.0140 Si            1 RES     
    8255 OS          72.9720    82.0210    31.0580 OS            1 RES     
    8256 O           54.9290    63.9990     8.3470 O             1 RES     
    8257 Si          73.0970    84.0080     6.9800 Si            1 RES     
    8258 O           85.3680    99.2480     6.6070 O             1 RES     
    8259 OS          78.6840    94.1080    18.6560 OS            1 RES     
    8260 O           88.6330    53.1870     8.2330 O             1 RES     
    8261 O           59.6790    88.1050     2.4130 O             1 RES     
    8262 O           74.3640    75.9410     9.8980 O             1 RES     
    8263 Si          51.3860    54.4330     6.3760 Si            1 RES     
    8264 O           86.0720    75.4030    10.9870 O             1 RES     
    8265 Si          83.3970    50.4560     4.1020 Si            1 RES     
    8266 OS          68.2110    59.9130    24.8810 OS            1 RES     
    8267 O           97.7770    95.4010     4.5940 O             1 RES     
    8268 Si          81.3250    59.2190    19.3740 Si            1 RES     
    8269 OS          80.2070    68.5960    31.5240 OS            1 RES     
    8270 O           99.6460    50.9140     7.0600 O             1 RES     
    8271 Si          99.7490    92.7510     8.8430 Si            1 RES     
    8272 O           97.7090    70.8010    12.2820 O             1 RES     
    8273 Si          84.0780    90.6950    19.7980 Si            1 RES     
    8274 O           71.0710    55.0660     7.7670 O             1 RES     
    8275 O           64.0860    74.7070    24.7600 O             1 RES     
    8276 Si          67.6200    58.2770    12.5210 Si            1 RES     
    8277 O           73.8990    58.0890     8.4830 O             1 RES     
    8278 O           94.9940    56.8110     5.0230 O             1 RES     
    8279 O           88.3840    77.7090     9.6910 O             1 RES     
    8280 Si          52.3000    99.5910     9.1770 Si            1 RES     
    8281 O           61.0760    67.9080    12.0650 O             1 RES     
    8282 Si          52.4870    95.5200     5.7490 Si            1 RES     
    8283 O           55.1070    63.1130     2.0220 O             1 RES     
    8284 O           62.3280    67.2470    17.3740 O             1 RES     
    8285 O           67.3130    67.3870    10.0950 O             1 RES     
    8286 O           81.9640    85.5910    20.3730 O             1 RES     
    8287 O           88.8030    68.8680     3.1010 O             1 RES     
    8288 O           56.2230    55.3790     1.6200 O             1 RES     
    8289 O           83.8930    87.3990    11.2720 O             1 RES     
    8290 O           85.5880    87.9490    13.8270 O             1 RES     
    8291 O           55.7350    72.1460    12.4840 O             1 RES     
    8292 O           99.2590    81.1290     2.4940 O             1 RES     
    8293 O           86.0140    79.6580    22.6280 O             1 RES     
    8294 Si          65.0640    66.2950    26.6790 Si            1 RES     
    8295 O           82.1490    81.5930    15.2900 O             1 RES     
    8296 Si          80.0550    70.4620     9.8690 Si            1 RES     
    8297 O           56.6910    71.9270     4.9560 O             1 RES     
    8298 O           67.7340    71.6430     3.5230 O             1 RES     
    8299 O           69.7000    95.8050    10.1940 O             1 RES     
    8300 Si          82.9650    79.8450    18.9590 Si            1 RES     
    8301 O           71.0350    60.2870     8.9720 O             1 RES     
    8302 Si          50.3040    61.6260     9.5100 Si            1 RES     
    8303 O           84.3180    69.0710    20.7060 O             1 RES     
    8304 O           62.7610    79.0530    26.0320 O             1 RES     
    8305 Si          97.8920    89.8850     5.9730 Si            1 RES     
    8306 O           59.8230    64.3430    20.4960 O             1 RES     
    8307 Si          75.8660    94.0270    10.5700 Si            1 RES     
    8308 O           53.1940    50.0020     7.9500 O             1 RES     
    8309 O           83.6470    84.4260     4.8550 O             1 RES     
    8310 Si          76.5920    77.8020    28.5770 Si            1 RES     
    8311 O           74.6980    66.6590    15.8720 O             1 RES     
    8312 Si          80.7270    92.4020     8.4770 Si            1 RES     
    8313 Si          84.7700    87.8690     3.8180 Si            1 RES     
    8314 Si          75.8100    76.8700    18.6350 Si            1 RES     
    8315 O           50.9940    60.8450     2.6310 O             1 RES     
    8316 O           79.2810    70.1280    11.1720 O             1 RES     
    8317 O           65.4150    57.7660     1.5950 O             1 RES     
    8318 O           68.3850    85.8390     4.7270 O             1 RES     
    8319 O           79.7800    70.4210    27.0360 O             1 RES     
    8320 Si          95.2900    75.8680     9.3100 Si            1 RES     
    8321 O           59.1420    70.1120    15.1910 O             1 RES     
    8322 Si          92.5050    72.3130    10.4510 Si            1 RES     
    8323 Si          65.7320    79.5360     3.7050 Si            1 RES     
    8324 O           66.8450    86.9720    15.4950 O             1 RES     
    8325 Si          59.6690    97.8430     5.4930 Si            1 RES     
    8326 Si          76.2720    88.4000    19.5410 Si            1 RES     
    8327 O           82.7920    85.4460    24.6740 O             1 RES     
    8328 O           62.3740    98.9220     8.1810 O             1 RES     
    8329 O           80.1040    75.8370    25.1810 O             1 RES     
    8330 O           74.6360    50.9360     7.9300 O             1 RES     
    8331 O           69.8080    53.0050     3.2320 O             1 RES     
    8332 O           85.4430    50.0010    12.9260 O             1 RES     
    8333 O           69.3630    80.0460    17.1250 O             1 RES     
    8334 Si          88.6640    69.1220    24.5570 Si            1 RES     
    8335 O           70.8050    65.8240    14.3030 O             1 RES     
    8336 Si          90.0800    81.9060    17.8590 Si            1 RES     
    8337 O           56.8130    77.9240     9.9120 O             1 RES     
    8338 Si          73.4790    86.1900    17.0410 Si            1 RES     
    8339 O           86.6000    88.8690     6.7020 O             1 RES     
    8340 Si          60.1060    69.0830    11.7060 Si            1 RES     
    8341 O           69.5560    65.3870     7.1320 O             1 RES     
    8342 O           63.4780    97.4240     3.3610 O             1 RES     
    8343 O           83.1620    61.7520    13.1050 O             1 RES     
    8344 O           60.6930    76.6800     1.2410 O             1 RES     
    8345 O           57.3390    73.2290    14.0230 O             1 RES     
    8346 O           72.8730    72.8310    11.1670 O             1 RES     
    8347 O           61.8470    71.1590     4.2940 O             1 RES     
    8348 Si          71.9760    62.3940    12.3550 Si            1 RES     
    8349 O           62.8560    59.6200     9.3420 O             1 RES     
    8350 OS          63.0210    90.1740    20.2130 OS            1 RES     
    8351 Si          65.5080    88.7700     3.6850 Si            1 RES     
    8352 OS          89.5790    88.3140    18.2440 OS            1 RES     
    8353 OS          82.3370    82.0070    29.5520 OS            1 RES     
    8354 O           75.8830    84.2890    20.2990 O             1 RES     
    8355 OS          86.4740    87.6770    21.4880 OS            1 RES     
    8356 Si          75.5830    78.2110    21.4680 Si            1 RES     
    8357 Si          82.7310    84.5790    19.3990 Si            1 RES     
    8358 O           87.2780    92.6790     9.7680 O             1 RES     
    8359 O           58.5470    60.3990     4.4330 O             1 RES     
    8360 O           54.3780    96.6300     8.9120 O             1 RES     
    8361 O           79.9050    95.6210     6.1860 O             1 RES     
    8362 Si          83.6080    64.0500     6.7690 Si            1 RES     
    8363 Si          78.9020    81.5380    20.4900 Si            1 RES     
    8364 O           67.7290    96.9900     5.8550 O             1 RES     
    8365 O           92.4750    71.9390    19.0220 O             1 RES     
    8366 O           63.0630    52.0570     5.8520 O             1 RES     
    8367 Si          68.2760    78.5300    13.6040 Si            1 RES     
    8368 Si          80.7160    86.5640    20.5570 Si            1 RES     
    8369 OS          81.9750    79.6660    30.3020 OS            1 RES     
    8370 O           82.3600    81.1910    25.2680 O             1 RES     
    8371 O           64.9550    70.6690     8.2220 O             1 RES     
    8372 O           76.1070    91.4050     4.3750 O             1 RES     
    8373 O           75.0990    72.3400    24.1500 O             1 RES     
    8374 Si          69.6160    85.8160    26.0190 Si            1 RES     
    8375 OS          66.3780    58.6360    17.3590 OS            1 RES     
    8376 O           76.7350    76.8440     2.9100 O             1 RES     
    8377 O           80.0560    52.9350     5.7890 O             1 RES     
    8378 O           95.2980    71.2120     4.8160 O             1 RES     
    8379 O           59.9770    60.8910     9.1250 O             1 RES     
    8380 Si          65.7720    82.3240    11.1840 Si            1 RES     
    8381 Si          67.0890    63.1220    23.6250 Si            1 RES     
    8382 O           78.1940    64.5250    21.1310 O             1 RES     
    8383 O           75.9570    82.4380     4.9530 O             1 RES     
    8384 Si          70.0490    80.9260    18.2010 Si            1 RES     
    8385 O           99.6260    88.0500     4.0950 O             1 RES     
    8386 Si          77.7560    72.5190     3.0090 Si            1 RES     
    8387 O           56.1310    68.0340    12.6980 O             1 RES     
    8388 OS          77.0690    80.2540    31.9640 OS            1 RES     
    8389 Si          75.3970    81.2950    17.0360 Si            1 RES     
    8390 Si          79.6580    62.5070     4.9570 Si            1 RES     
    8391 Si          70.6900    53.4160     4.4270 Si            1 RES     
    8392 O           68.0140    87.6140     6.4480 O             1 RES     
    8393 Si          72.1850    87.1440    27.5600 Si            1 RES     
    8394 Si          57.4400    99.6480     6.7860 Si            1 RES     
    8395 OS          61.7800    90.0120    17.8620 OS            1 RES     
    8396 O           61.4600    92.1930     3.2080 O             1 RES     
    8397 O           75.4780    89.1090    23.1650 O             1 RES     
    8398 O           57.4840    92.2850     4.2520 O             1 RES     
    8399 O           70.4090    91.3470     8.5420 O             1 RES     
    8400 Si          86.0340    83.7470    22.0510 Si            1 RES     
    8401 O           77.7690    65.8050     3.7780 O             1 RES     
    8402 O           70.8050    72.5490     6.6200 O             1 RES     
    8403 O           97.1940    59.1690     3.9050 O             1 RES     
    8404 O           93.1990    82.2580    11.8910 O             1 RES     
    8405 OS          52.5250    51.7930    12.7490 OS            1 RES     
    8406 O           65.8720    81.1240     3.5680 O             1 RES     
    8407 O           76.3600    57.3580    15.6490 O             1 RES     
    8408 Si          69.0690    83.5450    19.3010 Si            1 RES     
    8409 O           86.9670    73.0980    12.0190 O             1 RES     
    8410 O           74.6860    55.7720     8.6550 O             1 RES     
    8411 Si          53.3320    67.0320     2.8190 Si            1 RES     
    8412 O           96.1960    69.5610     9.2260 O             1 RES     
    8413 O           54.2990    61.6510     9.3740 O             1 RES     
    8414 Si          93.9040    70.4480     4.8120 Si            1 RES     
    8415 O           74.8680    85.8760    12.2940 O             1 RES     
    8416 O           73.6580    68.9010     3.6840 O             1 RES     
    8417 O           66.3490    77.5220    29.0840 O             1 RES     
    8418 Si          64.1220    87.2970    12.4430 Si            1 RES     
    8419 Si          98.3240    53.2150     9.4960 Si            1 RES     
    8420 O           68.3800    73.9620    26.9310 O             1 RES     
    8421 O           58.7600    95.0380    12.2370 O             1 RES     
    8422 Si          85.3480    84.2110     9.5120 Si            1 RES     
    8423 O           90.5500    82.2130    16.3910 O             1 RES     
    8424 Si          97.0210    50.0510    12.4420 Si            1 RES     
    8425 O           69.9310    83.8980     5.2210 O             1 RES     
    8426 O           71.4660    72.9700    23.7400 O             1 RES     
    8427 O           57.6010    84.5360     2.5650 O             1 RES     
    8428 Si          70.1700    72.8690    19.3010 Si            1 RES     
    8429 O           91.9330    87.9030     4.7360 O             1 RES     
    8430 Si          56.2890    67.4690     9.5750 Si            1 RES     
    8431 O           75.4360    61.1810    11.7760 O             1 RES     
    8432 O           83.1030    64.2480    19.2530 O             1 RES     
    8433 OS          58.6320    80.6620    23.9330 OS            1 RES     
    8434 Si          76.3970    83.3890    15.0550 Si            1 RES     
    8435 O           60.2860    51.4390     5.2360 O             1 RES     
    8436 O           73.4720    93.8750     7.4750 O             1 RES     
    8437 O           70.8380    67.0430    25.4280 O             1 RES     
    8438 Si          75.2830    67.7240    16.8390 Si            1 RES     
    8439 O           56.0160    94.9060     9.1190 O             1 RES     
    8440 Si          62.5860    59.9290     3.0050 Si            1 RES     
    8441 O           52.3750    65.4810     5.2860 O             1 RES     
    8442 O           77.3190    79.2610    12.4900 O             1 RES     
    8443 Si          55.0570    63.0090     9.6470 Si            1 RES     
    8444 Si          86.1520    59.3810    17.8800 Si            1 RES     
    8445 O           68.5420    55.3050     7.9260 O             1 RES     
    8446 O           98.6410    93.7890     8.4790 O             1 RES     
    8447 O           61.8310    80.9040    11.1600 O             1 RES     
    8448 O           85.0670    63.4710     6.3520 O             1 RES     
    8449 O           91.3640    70.2180    17.3710 O             1 RES     
    8450 Si          92.0050    88.9920     3.5840 Si            1 RES     
    8451 O           58.0640    90.0100     3.0870 O             1 RES     
    8452 Si          78.7100    87.9400     8.8920 Si            1 RES     
    8453 Si          51.4570    57.3840     7.0950 Si            1 RES     
    8454 O           69.3160    69.1490    28.1010 O             1 RES     
    8455 O           69.5950    81.6930     6.4870 O             1 RES     
    8456 Si          70.2910    60.6330    10.3250 Si            1 RES     
    8457 O           99.4830    59.5720     4.3120 O             1 RES     
    8458 Si          99.2360    80.9390    10.2300 Si            1 RES     
    8459 O           71.3580    90.8990    17.0280 O             1 RES     
    8460 Si          60.7820    64.1010    19.3180 Si            1 RES     
    8461 Si          63.9880    70.9370    24.9220 Si            1 RES     
    8462 O           80.0550    89.6900    21.0670 O             1 RES     
    8463 O           85.8630    66.2820    23.5900 O             1 RES     
    8464 O           86.1470    70.2180    27.2340 O             1 RES     
    8465 O           79.8460    91.2250     8.0550 O             1 RES     
    8466 Si          69.0220    75.9820     7.4110 Si            1 RES     
    8467 O           74.9200    65.2980    23.6200 O             1 RES     
    8468 O           73.4690    63.3370     9.5400 O             1 RES     
    8469 O           86.7630    80.9950    13.0960 O             1 RES     
    8470 O           74.7000    61.9830    17.2010 O             1 RES     
    8471 Si          81.3570    80.5210    16.2890 Si            1 RES     
    8472 O           76.5620    77.7310    14.5880 O             1 RES     
    8473 Si          73.9240    74.9980     8.7160 Si            1 RES     
    8474 O           83.2710    87.9530    13.2690 O             1 RES     
    8475 O           72.4530    71.1830    13.0020 O             1 RES     
    8476 O           61.9860    83.5310    15.7600 O             1 RES     
    8477 O           75.8540    75.8150     5.0220 O             1 RES     
    8478 O           90.4720    81.4740     8.0220 O             1 RES     
    8479 Si          89.0880    76.3840    18.2030 Si            1 RES     
    8480 Si          99.0790    59.2880     7.9830 Si            1 RES     
    8481 OS          56.2560    56.2770    13.5190 OS            1 RES     
    8482 O           88.0860    67.4320    17.5670 O             1 RES     
    8483 Si          84.2060    90.7980     4.4520 Si            1 RES     
    8484 O           88.6100    87.7160     3.1690 O             1 RES     
    8485 Si          57.0770    70.2490     8.8390 Si            1 RES     
    8486 Si          98.9090    96.5840    11.4290 Si            1 RES     
    8487 O           88.3370    76.5730     2.7100 O             1 RES     
    8488 OS          63.6830    61.5850    22.4690 OS            1 RES     
    8489 Si          84.5520    59.9310     7.0270 Si            1 RES     
    8490 Si          70.0360    81.2220    10.1190 Si            1 RES     
    8491 O           52.8930    72.2920     2.5400 O             1 RES     
    8492 Si          77.6670    66.0710     7.8400 Si            1 RES     
    8493 O           78.8060    63.8260     5.0430 O             1 RES     
    8494 O           89.9770    81.6070    22.7980 O             1 RES     
    8495 O           72.2570    74.7790    14.1770 O             1 RES     
    8496 Si          74.8180    62.7050    10.9700 Si            1 RES     
    8497 OS          63.3190    60.5770    20.2850 OS            1 RES     
    8498 Si          98.9160    83.1910     8.2340 Si            1 RES     
    8499 O           72.9010    77.4970    29.3830 O             1 RES     
    8500 O           81.3420    87.4130    26.0580 O             1 RES     
    8501 Si          69.3220    88.0950    12.5930 Si            1 RES     
    8502 O           79.8780    75.5860    30.4860 O             1 RES     
    8503 Si          51.9380    85.8990    11.6940 Si            1 RES     
    8504 OS          55.2630    72.3380    14.8900 OS            1 RES     
    8505 Si          82.2060    73.1000    25.6100 Si            1 RES     
    8506 Si          67.5520    75.4520    30.9880 Si            1 RES     
    8507 O           95.7460    87.2740    11.2740 O             1 RES     
    8508 O           91.7790    80.2140    12.0810 O             1 RES     
    8509 O           82.7410    65.7910    26.2210 O             1 RES     
    8510 O           59.4550    72.0580    22.5450 O             1 RES     
    8511 O           59.6630    80.5690    12.2770 O             1 RES     
    8512 Si          69.9030    64.9890     8.5670 Si            1 RES     
    8513 O           75.7710    54.4830     6.4720 O             1 RES     
    8514 OS          59.3450    85.3400    19.4620 OS            1 RES     
    8515 Si          74.7600    75.9270    23.4330 Si            1 RES     
    8516 OS          95.7780    72.3830    11.6510 OS            1 RES     
    8517 O           91.6890    74.2230    19.9760 O             1 RES     
    8518 O           69.4350    87.7760    22.0050 O             1 RES     
    8519 Si          83.4890    77.4430    20.9110 Si            1 RES     
    8520 O           76.2890    60.8470    14.2120 O             1 RES     
    8521 Si          80.6220    76.4560    21.1800 Si            1 RES     
    8522 O           98.9850    82.2290     4.6010 O             1 RES     
    8523 Si          69.0610    79.6520    23.8730 Si            1 RES     
    8524 Si          87.7750    89.8480     6.4840 Si            1 RES     
    8525 O           62.0190    88.7130    15.5210 O             1 RES     
    8526 O           58.1810    51.0180     6.6000 O             1 RES     
    8527 Si          79.1520    87.4230    23.1620 Si            1 RES     
    8528 O           57.9860    59.8280     2.0970 O             1 RES     
    8529 Si          79.5330    83.3360     5.4390 Si            1 RES     
    8530 O           96.2350    73.4670     5.7550 O             1 RES     
    8531 Si          67.2150    78.3100     6.4770 Si            1 RES     
    8532 O           73.2530    57.7300     5.9480 O             1 RES     
    8533 O           70.2230    91.7250     6.0320 O             1 RES     
    8534 Si          64.1060    52.9270    12.3560 Si            1 RES     
    8535 O           69.4250    76.0820     8.9530 O             1 RES     
    8536 Si          57.2080    98.9900     9.7760 Si            1 RES     
    8537 O           76.3080    68.4310    15.9010 O             1 RES     
    8538 O           63.0180    87.7460    13.3970 O             1 RES     
    8539 Si          99.0280    66.6680     9.7360 Si            1 RES     
    8540 O           88.7140    89.7180     7.7470 O             1 RES     
    8541 O           59.2220    74.8510    14.4470 O             1 RES     
    8542 Si          78.5270    80.6470    31.3520 Si            1 RES     
    8543 Si          80.7840    96.8420     5.9520 Si            1 RES     
    8544 O           62.1010    78.1600    22.3580 O             1 RES     
    8545 O           60.4830    79.8580     4.8470 O             1 RES     
    8546 O           93.3200    91.9460     1.6670 O             1 RES     
    8547 Si          73.0530    66.0680    21.0660 Si            1 RES     
    8548 Si          68.2410    62.9120    10.1490 Si            1 RES     
    8549 Si          91.1410    85.1330    13.6130 Si            1 RES     
    8550 O           60.7840    93.1810    10.3760 O             1 RES     
    8551 O           92.2450    92.8690     9.2390 O             1 RES     
    8552 Si          78.5000    72.7930     8.3570 Si            1 RES     
    8553 O           54.2370    71.0310    10.8790 O             1 RES     
    8554 O           81.8450    58.4730    11.9550 O             1 RES     
    8555 O           94.0220    72.2570     9.9290 O             1 RES     
    8556 Si          89.1410    99.3650     6.8780 Si            1 RES     
    8557 O           60.8590    65.6080    13.4570 O             1 RES     
    8558 Si          67.0160    91.1970    19.9650 Si            1 RES     
    8559 Si          55.3790    50.2450     4.5480 Si            1 RES     
    8560 O           58.0870    60.3600     7.2540 O             1 RES     
    8561 O           79.9120    93.3700     9.5960 O             1 RES     
    8562 OS          85.2100    85.5630    25.1100 OS            1 RES     
    8563 Si          80.9070    75.1600    14.4120 Si            1 RES     
    8564 Si          93.3470    67.3420     9.7490 Si            1 RES     
    8565 O           71.2180    88.5560     4.1250 O             1 RES     
    8566 OS          64.0290    74.5310    31.0280 OS            1 RES     
    8567 Si          96.2780    68.2610    10.0530 Si            1 RES     
    8568 O           69.3690    89.5920     7.2420 O             1 RES     
    8569 O           97.3990    63.5140     4.6950 O             1 RES     
    8570 Si          79.8150    83.5000    12.2720 Si            1 RES     
    8571 O           79.7090    54.6080     3.9520 O             1 RES     
    8572 Si          77.0730    56.3360    18.9710 Si            1 RES     
    8573 O           74.4790    56.5760     3.9720 O             1 RES     
    8574 Si          95.4830    50.4720     2.9760 Si            1 RES     
    8575 O           92.9600    71.7040     4.9030 O             1 RES     
    8576 O           61.2310    69.0010     2.7990 O             1 RES     
    8577 O           64.8760    69.9320    25.8180 O             1 RES     
    8578 Si          80.8700    58.1510     3.5780 Si            1 RES     
    8579 O           66.8270    67.6410    14.8210 O             1 RES     
    8580 Si          60.7240    94.5390     9.5680 Si            1 RES     
    8581 O           94.5910    53.2770    10.0920 O             1 RES     
    8582 O           69.1690    74.0000    22.9110 O             1 RES     
    8583 O           90.6880    62.9890    12.1640 O             1 RES     
    8584 O           73.7620    84.0750     5.5450 O             1 RES     
    8585 O           80.5120    82.5840    26.1350 O             1 RES     
    8586 O           78.5770    69.4320     4.6810 O             1 RES     
    8587 Si          98.8450    82.4750     3.0400 Si            1 RES     
    8588 O           90.7360    84.0150    14.6210 O             1 RES     
    8589 O           52.2640    78.7650    11.3580 O             1 RES     
    8590 O           58.7090    68.4050    12.0580 O             1 RES     
    8591 Si          86.6600    79.8290     3.7120 Si            1 RES     
    8592 Si          75.6120    89.9110    24.4880 Si            1 RES     
    8593 O           74.6190    71.3980     7.7070 O             1 RES     
    8594 O           80.4560    68.1940    18.4970 O             1 RES     
    8595 Si          80.4320    85.4690    17.7120 Si            1 RES     
    8596 Si          89.7760    77.3710    10.4760 Si            1 RES     
    8597 OS          98.4250    80.9370    11.5870 OS            1 RES     
    8598 O           86.1050    53.2680     8.2910 O             1 RES     
    8599 O           62.4430    51.3040     8.2790 O             1 RES     
    8600 O           67.5410    83.3940    19.7950 O             1 RES     
    8601 Si          83.4360    66.4340    10.8380 Si            1 RES     
    8602 Si          66.1900    83.2940    20.7110 Si            1 RES     
    8603 Si          82.8160    65.7660    19.6440 Si            1 RES     
    8604 Si          80.7530    54.1730     5.0870 Si            1 RES     
    8605 OS          94.1070    67.3680    16.1330 OS            1 RES     
    8606 O           60.8410    84.8060    13.8500 O             1 RES     
    8607 O           56.1070    88.0600     5.8620 O             1 RES     
    8608 O           74.3990    90.8800    23.9190 O             1 RES     
    8609 O           88.6680    86.4770     8.9480 O             1 RES     
    8610 O           77.3420    81.8460    27.7970 O             1 RES     
    8611 Si          61.1630    59.6020     5.7720 Si            1 RES     
    8612 OS          89.5670    61.5030    13.8690 OS            1 RES     
    8613 O           65.9730    85.2570    17.6760 O             1 RES     
    8614 O           66.3450    74.7220    30.2270 O             1 RES     
    8615 Si          90.3730    64.4940     8.7190 Si            1 RES     
    8616 O           99.6810    82.3530     7.0340 O             1 RES     
    8617 O           64.2170    72.5440    13.1760 O             1 RES     
    8618 O           83.6960    65.5260     7.1440 O             1 RES     
    8619 Si          60.5430    67.4040    22.8010 Si            1 RES     
    8620 O           84.6540    99.6130     3.8450 O             1 RES     
    8621 O           50.6790    80.3410     5.3820 O             1 RES     
    8622 Si          69.0850    98.6460    12.2470 Si            1 RES     
    8623 Si          72.1510    52.9900    10.5480 Si            1 RES     
    8624 O           52.4910    68.3390     2.9200 O             1 RES     
    8625 Si          81.8350    67.9300    17.8210 Si            1 RES     
    8626 O           84.1880    73.5210    19.5650 O             1 RES     
    8627 O           71.8430    77.4000    25.4550 O             1 RES     
    8628 Si          96.3210    91.5570     3.9180 Si            1 RES     
    8629 OS          86.2270    89.7220    16.1120 OS            1 RES     
    8630 Si          77.6650    68.7470    28.6880 Si            1 RES     
    8631 Si          59.0120    71.6980    24.0230 Si            1 RES     
    8632 O           87.9280    78.6440    16.1970 O             1 RES     
    8633 O           80.9560    60.9060    13.9280 O             1 RES     
    8634 O           70.6750    85.7400     9.5880 O             1 RES     
    8635 O           94.1660    76.3470     8.2340 O             1 RES     
    8636 Si          50.5010    75.4290     7.9210 Si            1 RES     
    8637 O           75.2210    89.4880     5.9300 O             1 RES     
    8638 OS          96.3090    85.2350    12.6710 OS            1 RES     
    8639 O           87.0080    80.1150    18.0290 O             1 RES     
    8640 O           62.3130    66.3500    22.6510 O             1 RES     
    8641 Si          87.1430    64.4360    13.9330 Si            1 RES     
    8642 O           68.4640    62.1210    16.9390 O             1 RES     
    8643 O           69.1550    57.3510     3.9290 O             1 RES     
    8644 O           74.3180    75.4750     7.2570 O             1 RES     
    8645 O           74.3760    69.3060    22.7530 O             1 RES     
    8646 Si          71.9690    73.3370    25.2050 Si            1 RES     
    8647 O           94.5330    92.4470    10.6150 O             1 RES     
    8648 O           82.8890    87.2560     8.9580 O             1 RES     
    8649 OS          51.4300    57.6250    13.2710 OS            1 RES     
    8650 OS          89.8860    68.1500    24.5340 OS            1 RES     
    8651 Si          60.0770    68.5520     6.3800 Si            1 RES     
    8652 Si          65.4110    62.2030     8.9330 Si            1 RES     
    8653 O           80.2040    60.2920    19.4980 O             1 RES     
    8654 O           92.2180    66.1660    14.7590 O             1 RES     
    8655 Si          73.5250    72.0570    12.3530 Si            1 RES     
    8656 O           82.6580    79.0700    10.7970 O             1 RES     
    8657 O           68.9780    61.5120    10.0640 O             1 RES     
    8658 O           75.6930    69.3670    13.4870 O             1 RES     
    8659 O           92.1530    59.8200     4.4030 O             1 RES     
    8660 O           81.5440    67.1520    13.7880 O             1 RES     
    8661 O           68.3820    57.7760    11.1990 O             1 RES     
    8662 O           88.9300    71.2260    12.9580 O             1 RES     
    8663 Si          69.9120    75.9010    10.4390 Si            1 RES     
    8664 O           64.7480    77.7070    27.1430 O             1 RES     
    8665 O           79.4740    62.4970    12.3920 O             1 RES     
    8666 Si          71.2670    89.6860     3.0300 Si            1 RES     
    8667 O           60.8190    85.2260    17.4460 O             1 RES     
    8668 O           60.3610    94.5950     2.8460 O             1 RES     
    8669 O           77.4030    59.4980    16.0170 O             1 RES     
    8670 O           69.7400    95.9700     3.4200 O             1 RES     
    8671 Si          68.8430    60.6020     5.8770 Si            1 RES     
    8672 O           90.4530    67.9770    16.9820 O             1 RES     
    8673 O           61.3070    74.0840     8.6510 O             1 RES     
    8674 Si          63.8010    71.0380    21.7140 Si            1 RES     
    8675 OS          71.1670    51.4560    13.9310 OS            1 RES     
    8676 O           58.0970    79.2030     4.1690 O             1 RES     
    8677 O           83.8360    60.8010     2.9710 O             1 RES     
    8678 O           51.1100    70.6060     3.1090 O             1 RES     
    8679 Si          96.7980    70.7630     8.3390 Si            1 RES     
    8680 OS          78.8530    88.2960    26.7900 OS            1 RES     
    8681 O           62.9400    88.4750     8.8170 O             1 RES     
    8682 O           68.6690    82.1100    27.6330 O             1 RES     
    8683 O           78.4580    69.2960    19.6280 O             1 RES     
    8684 Si          79.6600    94.8580    10.0510 Si            1 RES     
    8685 O           61.2120    65.4640     8.3510 O             1 RES     
    8686 Si          89.6190    52.0610     8.6460 Si            1 RES     
    8687 O           69.3910    89.6610    12.7410 O             1 RES     
    8688 O           77.0070    69.7810    23.8340 O             1 RES     
    8689 Si          72.8440    68.8100    22.6670 Si            1 RES     
    8690 O           97.5620    57.4470     5.5700 O             1 RES     
    8691 Si          89.2700    86.7440    10.3940 Si            1 RES     
    8692 O           93.0340    68.0030     8.3440 O             1 RES     
    8693 O           60.4040    80.6930    18.5740 O             1 RES     
    8694 O           83.1790    61.8130    18.0580 O             1 RES     
    8695 Si          81.7660    56.8110     9.2550 Si            1 RES     
    8696 O           52.4310    70.7180     6.6690 O             1 RES     
    8697 Si          91.7730    94.6900    12.3280 Si            1 RES     
    8698 OS          56.3370    77.6060    19.5490 OS            1 RES     
    8699 Si          87.5220    72.0300    13.0870 Si            1 RES     
    8700 O           78.3720    83.8490     7.0030 O             1 RES     
    8701 O           62.9090    77.3060    12.5350 O             1 RES     
    8702 Si          54.1990    55.0560    10.8450 Si            1 RES     
    8703 O           89.9540    55.4880     5.1340 O             1 RES     
    8704 O           70.7270    70.6660    15.7570 O             1 RES     
    8705 Si          52.1290    64.5270     4.0690 Si            1 RES     
    8706 Si          73.8080    58.7590     7.0580 Si            1 RES     
    8707 O           75.0160    79.6100    21.8590 O             1 RES     
    8708 O           65.0930    50.7780     4.4410 O             1 RES     
    8709 O           72.3800    78.6820    16.1620 O             1 RES     
    8710 O           84.8950    54.1750     6.5650 O             1 RES     
    8711 O           84.3920    79.4680    12.5620 O             1 RES     
    8712 Si          65.1170    63.2130    13.2810 Si            1 RES     
    8713 O           53.3300    72.7720     8.3380 O             1 RES     
    8714 O           68.1330    59.5050     2.4330 O             1 RES     
    8715 O           62.2920    94.5360     9.1110 O             1 RES     
    8716 O           56.9350    70.8710     7.3810 O             1 RES     
    8717 Si          58.2440    87.4110     8.3920 Si            1 RES     
    8718 O           75.8330    65.4440    13.8280 O             1 RES     
    8719 Si          63.5490    84.3190    11.9030 Si            1 RES     
    8720 O           86.4410    75.2780    23.2990 O             1 RES     
    8721 O           84.7150    72.4890    28.2370 O             1 RES     
    8722 Si          69.7110    57.5830    10.4450 Si            1 RES     
    8723 Si          78.6080    65.3720     4.9640 Si            1 RES     
    8724 O           89.9930    54.1720     3.0720 O             1 RES     
    8725 O           60.7950    77.8470    18.1880 O             1 RES     
    8726 Si          75.0340    82.0940     8.5620 Si            1 RES     
    8727 Si          67.6830    69.9340    17.7630 Si            1 RES     
    8728 O           66.5230    74.1600    25.2600 O             1 RES     
    8729 Si          70.9400    74.0480    14.7090 Si            1 RES     
    8730 O           93.6290    83.2150     5.0040 O             1 RES     
    8731 Si          61.3430    91.5240     4.6710 Si            1 RES     
    8732 O           69.7800    84.3940    18.1900 O             1 RES     
    8733 Si          77.0130    63.1390     8.3330 Si            1 RES     
    8734 Si          98.9600    63.6160     4.9470 Si            1 RES     
    8735 O           76.9220    79.1920     9.9540 O             1 RES     
    8736 Si          56.3490    76.5680     6.4490 Si            1 RES     
    8737 O           87.8590    69.1020    25.8620 O             1 RES     
    8738 O           68.1550    66.9400    21.1270 O             1 RES     
    8739 Si          59.7340    75.6550    20.5660 Si            1 RES     
    8740 O           76.2180    53.1580    10.9840 O             1 RES     
    8741 Si          74.4560    88.6720    22.0060 Si            1 RES     
    8742 O           83.2120    66.3800     9.3320 O             1 RES     
    8743 O           87.6820    72.8070    23.1380 O             1 RES     
    8744 Si          64.2890    74.1020    21.6090 Si            1 RES     
    8745 OS          56.4260    84.7250    12.1420 OS            1 RES     
    8746 O           69.1830    98.4110     2.8480 O             1 RES     
    8747 Si          78.6360    59.5020    23.2270 Si            1 RES     
    8748 Si          52.8540    96.5740     8.6460 Si            1 RES     
    8749 O           90.5630    85.5950     5.7950 O             1 RES     
    8750 O           83.2630    60.6490     7.6910 O             1 RES     
    8751 O           80.9350    73.7710    13.4950 O             1 RES     
    8752 O           94.8170    99.4930     6.4370 O             1 RES     
    8753 O           65.8050    50.2400    11.7960 O             1 RES     
    8754 O           70.7270    73.2560    26.1280 O             1 RES     
    8755 OS          60.3240    62.9180    18.4200 OS            1 RES     
    8756 Si          79.1690    90.2680     6.9740 Si            1 RES     
    8757 O           78.2550    64.9640    26.9720 O             1 RES     
    8758 O           74.2300    82.0940     9.9360 O             1 RES     
    8759 O           62.1450    78.5980    14.5190 O             1 RES     
    8760 O           86.0060    64.0500    12.9430 O             1 RES     
    8761 Si          54.1400    81.8930    12.2360 Si            1 RES     
    8762 O           63.9600    85.7890    11.8600 O             1 RES     
    8763 O           60.1560    67.0980     6.7790 O             1 RES     
    8764 O           81.4690    89.6370    17.0500 O             1 RES     
    8765 Si          70.8640    68.5830    25.0070 Si            1 RES     
    8766 O           81.4100    88.4720    11.0010 O             1 RES     
    8767 O           66.3110    59.1870    12.1930 O             1 RES     
    8768 O           84.0610    76.0340    20.7660 O             1 RES     
    8769 O           99.7160    56.1130    11.9960 O             1 RES     
    8770 O           76.9990    75.5250    15.6920 O             1 RES     
    8771 O           60.6920    65.3820    18.4020 O             1 RES     
    8772 Si          96.2190    56.7850     6.0930 Si            1 RES     
    8773 O           65.5620    73.4400    15.1250 O             1 RES     
    8774 OS          99.4500    58.6740    12.1600 OS            1 RES     
    8775 O           50.5590    74.8310     9.4250 O             1 RES     
    8776 O           81.0190    62.8100     4.2520 O             1 RES     
    8777 O           92.5120    63.8110     3.3200 O             1 RES     
    8778 O           94.9820    85.0040     3.9540 O             1 RES     
    8779 Si          97.8900    90.3320     9.3920 Si            1 RES     
    8780 O           90.7650    69.2600    12.4870 O             1 RES     
    8781 O           99.3310    84.6780     8.0710 O             1 RES     
    8782 O           53.8620    66.9500     1.4150 O             1 RES     
    8783 O           56.5610    59.2230     3.8240 O             1 RES     
    8784 O           74.4050    85.3960    18.0720 O             1 RES     
    8785 O           84.6850    62.5290    11.3780 O             1 RES     
    8786 Si          74.1050    89.4900    10.4800 Si            1 RES     
    8787 O           69.2980    69.9110    17.7280 O             1 RES     
    8788 O           83.2570    50.2650     5.6660 O             1 RES     
    8789 O           72.7900    59.8900     7.1890 O             1 RES     
    8790 O           82.6950    85.6060     6.7950 O             1 RES     
    8791 O           55.9340    78.2390    12.2320 O             1 RES     
    8792 O           79.9530    65.9870     4.5410 O             1 RES     
    8793 Si          95.8740    63.8780     8.0790 Si            1 RES     
    8794 O           93.1760    74.2670    13.5710 O             1 RES     
    8795 Si          72.7990    86.1800    21.3640 Si            1 RES     
    8796 O           84.1640    67.8210    10.9570 O             1 RES     
    8797 Si          85.7220    84.0270    19.0270 Si            1 RES     
    8798 OS          68.3720    94.3820    14.6580 OS            1 RES     
    8799 O           68.0170    85.9300    23.1030 O             1 RES     
    8800 Si          99.1160    70.2060    11.9690 Si            1 RES     
    8801 Si          71.7090    77.7900    17.3190 Si            1 RES     
    8802 O           65.7400    60.8380     8.1330 O             1 RES     
    8803 Si          55.7440    96.3750     9.5310 Si            1 RES     
    8804 O           88.2740    74.3050    10.1730 O             1 RES     
    8805 O           93.1520    51.7600     6.8610 O             1 RES     
    8806 O           74.4440    66.8930     9.2070 O             1 RES     
    8807 O           81.9860    67.7560    16.2570 O             1 RES     
    8808 Si          97.1230    94.1060     8.0430 Si            1 RES     
    8809 Si          82.3110    63.8020     4.0170 Si            1 RES     
    8810 Si          62.3270    71.1070    16.4370 Si            1 RES     
    8811 O           77.0840    50.2090     8.7460 O             1 RES     
    8812 Si          92.5260    74.7440    12.2770 Si            1 RES     
    8813 O           98.5480    59.5350     6.5140 O             1 RES     
    8814 O           82.0620    80.0730    17.6010 O             1 RES     
    8815 Si          83.2150    81.5780    24.0600 Si            1 RES     
    8816 OS          76.2540    87.6170    27.2290 OS            1 RES     
    8817 O           82.0830    55.2400     9.5810 O             1 RES     
    8818 Si          80.7770    56.9750     6.3810 Si            1 RES     
    8819 O           82.6560    67.3460     3.5770 O             1 RES     
    8820 Si          72.9830    96.9500     5.2330 Si            1 RES     
    8821 Si          74.4350    89.1070    17.1430 Si            1 RES     
    8822 O           78.9480    81.1740    18.9390 O             1 RES     
    8823 Si          60.7820    72.8880     7.5800 Si            1 RES     
    8824 O           87.9150    85.4680     2.4360 O             1 RES     
    8825 Si          69.3800    93.8850    13.4490 Si            1 RES     
    8826 Si          78.4300    63.1980    21.9170 Si            1 RES     
    8827 Si          78.5620    60.2560     3.2980 Si            1 RES     
    8828 O           89.5970    58.4610     6.8880 O             1 RES     
    8829 O           78.0860    77.0470    12.8440 O             1 RES     
    8830 Si          62.4540    50.0520     9.2110 Si            1 RES     
    8831 O           65.0580    83.8900    19.7920 O             1 RES     
    8832 Si          83.6540    68.2240    29.2630 Si            1 RES     
    8833 O           74.8350    71.9230    21.6310 O             1 RES     
    8834 O           75.1730    59.3400     6.4250 O             1 RES     
    8835 O           79.9060    64.1580    14.2690 O             1 RES     
    8836 O           83.3330    94.0330    10.0310 O             1 RES     
    8837 O           91.8390    74.0760     5.2260 O             1 RES     
    8838 Si          87.3600    67.2670     7.9960 Si            1 RES     
    8839 Si          78.2610    78.7300     5.8670 Si            1 RES     
    8840 Si          80.2820    58.1480    12.0040 Si            1 RES     
    8841 O           53.8730    52.3210     7.7110 O             1 RES     
    8842 Si          63.5890    77.9060    21.8750 Si            1 RES     
    8843 O           90.3520    70.8420    19.6010 O             1 RES     
    8844 O           59.8770    99.4910    12.5530 O             1 RES     
    8845 O           64.0220    60.2330    11.5570 O             1 RES     
    8846 Si          72.5800    63.5060     8.3100 Si            1 RES     
    8847 O           99.1180    51.8730     9.3660 O             1 RES     
    8848 OS          60.3530    60.2990    14.1460 OS            1 RES     
    8849 Si          72.0920    81.0420    27.2550 Si            1 RES     
    8850 Si          98.9490    64.0960     8.0240 Si            1 RES     
    8851 O           59.7990    79.2530    22.2250 O             1 RES     
    8852 Si          96.8790    53.8960     6.8860 Si            1 RES     
    8853 O           85.4650    82.8620     6.0240 O             1 RES     
    8854 O           78.2980    69.3650    29.9830 O             1 RES     
    8855 Si          61.0240    66.2980    17.2170 Si            1 RES     
    8856 O           71.6770    79.5520    21.3100 O             1 RES     
    8857 O           84.5320    68.7980    28.0880 O             1 RES     
    8858 O           77.1510    87.9040     8.7450 O             1 RES     
    8859 Si          67.7620    73.1290     3.9820 Si            1 RES     
    8860 O           76.4320    67.0710     7.9550 O             1 RES     
    8861 O           73.7870    78.9780    13.9750 O             1 RES     
    8862 Si          69.7670    90.8330    16.6720 Si            1 RES     
    8863 O           89.4520    73.2480    20.0130 O             1 RES     
    8864 Si          59.2460    85.5180    17.9110 Si            1 RES     
    8865 O           64.9030    72.0870     6.1110 O             1 RES     
    8866 O           66.5420    93.3890     8.1150 O             1 RES     
    8867 O           50.9190    72.9880     4.2150 O             1 RES     
    8868 Si          67.7200    63.2740     4.9340 Si            1 RES     
    8869 O           55.1420    92.4580     8.9610 O             1 RES     
    8870 O           87.5170    84.2110    22.3100 O             1 RES     
    8871 O           84.5830    58.8080     5.8920 O             1 RES     
    8872 O           50.6930    72.6550     1.5560 O             1 RES     
    8873 O           81.7930    65.3670    15.4860 O             1 RES     
    8874 O           77.9120    94.4110     6.9660 O             1 RES     
    8875 Si          98.7060    62.1020    12.1750 Si            1 RES     
    8876 O           68.3710    63.4360    11.6530 O             1 RES     
    8877 O           90.0080    54.3710    11.6840 O             1 RES     
    8878 O           68.3840    64.6960     5.1130 O             1 RES     
    8879 O           77.5840    71.0610    17.5520 O             1 RES     
    8880 O           55.2630    96.3220    11.0400 O             1 RES     
    8881 O           97.8390    71.1070     5.3680 O             1 RES     
    8882 O           73.0890    81.0090    22.7310 O             1 RES     
    8883 Si          76.3970    65.0080    12.4620 Si            1 RES     
    8884 O           92.3170    76.3140     6.2530 O             1 RES     
    8885 O           84.6470    59.6550    17.3710 O             1 RES     
    8886 O           75.3350    57.2390    10.7060 O             1 RES     
    8887 O           64.7240    64.8470    18.6900 O             1 RES     
    8888 Si          81.4810    76.0880     8.1040 Si            1 RES     
    8889 O           99.2420    86.2610     5.9950 O             1 RES     
    8890 O           79.4610    77.5180    20.7090 O             1 RES     
    8891 O           96.9280    52.4810     9.7930 O             1 RES     
    8892 O           86.5390    80.8970     7.4160 O             1 RES     
    8893 O           74.2400    81.7670    17.9470 O             1 RES     
    8894 O           82.5680    71.7720     6.0700 O             1 RES     
    8895 O           51.2920    69.6120     8.2810 O             1 RES     
    8896 O           82.5040    80.7130    20.2540 O             1 RES     
    8897 O           74.1240    62.2340     5.0580 O             1 RES     
    8898 Si          53.8400    53.8590     8.0030 Si            1 RES     
    8899 O           59.5710    66.9850    17.2320 O             1 RES     
    8900 O           74.5720    67.1030    28.8450 O             1 RES     
    8901 Si          52.7330    57.5870     9.8720 Si            1 RES     
    8902 O           67.7410    62.6050    19.7170 O             1 RES     
    8903 O           61.5800    81.8830    20.3590 O             1 RES     
    8904 O           67.5840    72.2940    14.2440 O             1 RES     
    8905 O           78.5950    83.7940    27.2600 O             1 RES     
    8906 O           57.5060    75.9090    11.4880 O             1 RES     
    8907 Si          58.4160    74.7610     7.8710 Si            1 RES     
    8908 OS          51.2370    66.9980    13.2580 OS            1 RES     
    8909 O           64.4070    52.7210     7.7180 O             1 RES     
    8910 O           75.0570    90.4720    11.2770 O             1 RES     
    8911 O           71.3450    81.9200     4.4470 O             1 RES     
    8912 Si          61.9350    89.3810     9.6200 Si            1 RES     
    8913 O           70.3500    80.4180    23.2190 O             1 RES     
    8914 Si          62.9040    52.3990     7.3500 Si            1 RES     
    8915 Si          81.7950    88.1020    16.8530 Si            1 RES     
    8916 O           61.8410    75.7820    24.6950 O             1 RES     
    8917 O           84.6530    54.1580     4.0910 O             1 RES     
    8918 OS          84.5210    74.9930    29.1230 OS            1 RES     
    8919 Si          70.6580    82.5660     5.7020 Si            1 RES     
    8920 O           59.9550    56.7670    10.5320 O             1 RES     
    8921 O           68.4200    62.3350    14.1680 O             1 RES     
    8922 Si          83.7970    72.3670    23.1070 Si            1 RES     
    8923 O           56.3270    99.7210     5.6860 O             1 RES     
    8924 O           78.0230    73.1170     4.3880 O             1 RES     
    8925 Si          63.5940    51.3770     4.4050 Si            1 RES     
    8926 O           84.1490    80.2790    23.9840 O             1 RES     
    8927 O           76.0460    62.7870     7.0520 O             1 RES     
    8928 Si          58.1330    89.0510    11.0320 Si            1 RES     
    8929 O           79.3400    50.0210     9.9030 O             1 RES     
    8930 O           62.2230    68.5280    19.4780 O             1 RES     
    8931 O           70.6290    69.5290    12.8240 O             1 RES     
    8932 O           71.6260    79.8250    26.3720 O             1 RES     
    8933 O           73.2210    90.2820    21.4770 O             1 RES     
    8934 O           79.7430    88.3190    24.4380 O             1 RES     
    8935 O           96.3110    66.6070     5.0460 O             1 RES     
    8936 O           85.1690    59.0720     8.2150 O             1 RES     
    8937 O           72.7640    86.2150    10.5800 O             1 RES     
    8938 O           71.7240    54.2780    11.3080 O             1 RES     
    8939 Si          63.2840    65.1680    22.4770 Si            1 RES     
    8940 O           80.1630    69.2540     8.8420 O             1 RES     
    8941 O           60.6230    87.1910    13.7770 O             1 RES     
    8942 OS          56.8940    70.7390    16.0540 OS            1 RES     
    8943 O           81.7050    63.8610    22.2490 O             1 RES     
    8944 O           92.2350    68.6110    15.3760 O             1 RES     
    8945 Si          65.8320    67.6140    10.7090 Si            1 RES     
    8946 O           66.3380    82.5490    28.4430 O             1 RES     
    8947 O           99.4760    89.6740     5.8810 O             1 RES     
    8948 Si          89.0210    76.4570    13.3240 Si            1 RES     
    8949 O           67.5210    63.0590     3.3260 O             1 RES     
    8950 O           74.9680    64.3150    18.3710 O             1 RES     
    8951 O           77.1000    92.3130    17.8040 O             1 RES     
    8952 OS          82.5810    68.5100    30.4410 OS            1 RES     
    8953 Si          63.2090    93.8680     5.5150 Si            1 RES     
    8954 O           86.7560    78.3420     3.2740 O             1 RES     
    8955 O           50.1930    58.2110     7.5440 O             1 RES     
    8956 Si          80.3810    75.0240    18.4930 Si            1 RES     
    8957 OS          57.0760    66.8230    18.3330 OS            1 RES     
    8958 O           90.9160    58.9220     9.0310 O             1 RES     
    8959 O           57.4210    66.1880    15.7340 O             1 RES     
    8960 Si          85.5870    98.5000    12.5270 Si            1 RES     
    8961 O           63.4190    84.2440    17.6480 O             1 RES     
    8962 O           82.5230    80.9610    12.8910 O             1 RES     
    8963 Si          76.3850    80.8540     4.7940 Si            1 RES     
    8964 O           70.8250    73.1930    21.1360 O             1 RES     
    8965 Si          71.2500    50.8260    12.5180 Si            1 RES     
    8966 Si          71.5520    59.7880    24.4900 Si            1 RES     
    8967 O           71.1900    82.7920    13.7720 O             1 RES     
    8968 O           78.7420    94.1770    13.7490 O             1 RES     
    8969 O           77.9370    78.7950     7.4510 O             1 RES     
    8970 Si          82.3110    51.7010    11.9900 Si            1 RES     
    8971 O           70.8080    53.1280     6.0350 O             1 RES     
    8972 O           90.3960    69.4270    10.0400 O             1 RES     
    8973 O           58.1620    94.6540     3.9810 O             1 RES     
    8974 O           81.2400    97.1840     7.4300 O             1 RES     
    8975 O           73.7120    52.8520    10.9510 O             1 RES     
    8976 Si          71.9530    99.8670     5.1650 Si            1 RES     
    8977 O           78.4080    82.9060    12.4150 O             1 RES     
    8978 Si          52.6000    89.6720    10.1250 Si            1 RES     
    8979 Si          64.2540    70.1500     9.5970 Si            1 RES     
    8980 Si          83.7110    61.3420    11.5940 Si            1 RES     
    8981 O           52.3200    86.0940    10.2110 O             1 RES     
    8982 Si          83.6340    86.2480     7.9020 Si            1 RES     
    8983 O           88.0030    77.3230    14.0780 O             1 RES     
    8984 O           70.3450    64.3530    16.3160 O             1 RES     
    8985 OS          60.7800    55.6640    12.5930 OS            1 RES     
    8986 Si          79.0310    79.4330    24.9760 Si            1 RES     
    8987 O           68.4220    75.5630    24.9670 O             1 RES     
    8988 O           74.1490    93.2310    10.0890 O             1 RES     
    8989 O           93.1390    78.5830    10.8060 O             1 RES     
    8990 O           97.2410    55.9820    11.9870 O             1 RES     
    8991 Si          61.9340    84.0970    17.2530 Si            1 RES     
    8992 O           70.2990    60.0140    18.9850 O             1 RES     
    8993 Si          63.1380    60.7930    10.3950 Si            1 RES     
    8994 O           67.1380    83.0670    11.5390 O             1 RES     
    8995 Si          76.4910    79.8150    11.3490 Si            1 RES     
    8996 O           68.5480    62.0030     5.4170 O             1 RES     
    8997 Si          75.6500    71.0200    28.1660 Si            1 RES     
    8998 O           81.5450    85.9710     4.5650 O             1 RES     
    8999 Si          50.7740    97.0520     3.7350 Si            1 RES     
    9000 O           52.5520    57.5940     3.3250 O             1 RES     
    9001 Si          95.9920    82.1560     8.3110 Si            1 RES     
    9002 O           94.3380    96.0900     7.4270 O             1 RES     
    9003 Si          93.0130    79.5670     5.5960 Si            1 RES     
    9004 Si          93.2570    54.0900    10.1390 Si            1 RES     
    9005 O           76.5570    84.7500    24.6970 O             1 RES     
    9006 O           73.1320    64.9230    22.1950 O             1 RES     
    9007 O           56.7530    60.6080    12.1240 O             1 RES     
    9008 O           85.5900    67.9490    25.6270 O             1 RES     
    9009 Si          77.4220    53.6870    10.1520 Si            1 RES     
    9010 O           67.8060    50.4220     4.2120 O             1 RES     
    9011 OS          79.0640    75.4440    32.9900 OS            1 RES     
    9012 O           88.2740    56.0910    11.2360 O             1 RES     
    9013 O           54.5930    89.7580     5.1360 O             1 RES     
    9014 Si          78.9100    51.9180     6.1170 Si            1 RES     
    9015 O           61.7560    56.7500     4.0410 O             1 RES     
    9016 Si          74.7800    87.9610     5.9250 Si            1 RES     
    9017 O           59.0370    58.2650     8.6630 O             1 RES     
    9018 O           74.0770    62.4170     2.5300 O             1 RES     
    9019 O           54.5950    99.1400    14.5170 O             1 RES     
    9020 O           74.6140    71.0140    11.8510 O             1 RES     
    9021 O           72.9150    75.2500     2.6540 O             1 RES     
    9022 O           60.7970    97.4620     6.5500 O             1 RES     
    9023 OS          72.9170    69.4310    30.5910 OS            1 RES     
    9024 Si          71.8370    91.1810     9.1520 Si            1 RES     
    9025 O           91.2430    81.7290    14.0450 O             1 RES     
    9026 O           59.1480    57.9230     3.5290 O             1 RES     
    9027 Si          90.5370    59.9940    10.0790 Si            1 RES     
    9028 O           55.7350    55.3190    11.2190 O             1 RES     
    9029 O           51.9570    88.9090     4.9630 O             1 RES     
    9030 O           89.2870    90.1540    10.0700 O             1 RES     
    9031 O           53.8470    67.0590     4.3490 O             1 RES     
    9032 O           82.6420    83.2500    20.2310 O             1 RES     
    9033 Si          85.5550    66.9860    14.8810 Si            1 RES     
    9034 O           67.8950    91.6230     7.1700 O             1 RES     
    9035 Si          91.1600    82.1080     9.2800 Si            1 RES     
    9036 O           75.6440    77.0250    16.9910 O             1 RES     
    9037 O           65.0490    67.8340    27.2160 O             1 RES     
    9038 Si          57.5300    68.7090     4.5500 Si            1 RES     
    9039 O           89.2430    60.7900     9.7430 O             1 RES     
    9040 O           88.8950    64.7690     9.3090 O             1 RES     
    9041 Si          82.5590    87.3940    10.4550 Si            1 RES     
    9042 O           71.5130    65.3150    18.1590 O             1 RES     
    9043 O           86.1270    96.5280     6.8370 O             1 RES     
    9044 O           66.0310    68.3040    21.0090 O             1 RES     
    9045 O           85.6710    57.5290     3.6010 O             1 RES     
    9046 Si          91.2410    55.5420     6.0670 Si            1 RES     
    9047 Si          79.4630    71.8880    26.5750 Si            1 RES     
    9048 O           75.3920    77.7080    19.9890 O             1 RES     
    9049 O           94.3530    97.2570     5.2990 O             1 RES     
    9050 O           71.0960    61.5510    11.3260 O             1 RES     
    9051 O           86.3140    97.7270     2.8030 O             1 RES     
    9052 Si          53.2690    57.8770     4.6890 Si            1 RES     
    9053 O           80.7690    86.9080    17.1030 O             1 RES     
    9054 Si          71.6010    80.7290    22.3260 Si            1 RES     
    9055 O           77.8640    74.7370    28.9750 O             1 RES     
    9056 Si          94.3260    82.8360    10.9620 Si            1 RES     
    9057 O           55.9080    94.4830     4.7470 O             1 RES     
    9058 O           87.8670    98.5510     6.9750 O             1 RES     
    9059 O           73.0880    67.4420    21.9090 O             1 RES     
    9060 Si          76.1370    60.9850    22.0640 Si            1 RES     
    9061 O           70.1580    77.8620    16.9140 O             1 RES     
    9062 Si          97.7890    79.7170     7.8140 Si            1 RES     
    9063 O           60.5360    95.8010    10.8160 O             1 RES     
    9064 Si          78.8070    69.4510    31.4610 Si            1 RES     
    9065 O           80.0420    56.9110     3.1560 O             1 RES     
    9066 O           79.3280    75.3040     5.3200 O             1 RES     
    9067 O           52.6590    54.1220     4.7300 O             1 RES     
    9068 O           53.6920    89.0040     2.9030 O             1 RES     
    9069 O           96.0630    57.6860    10.0550 O             1 RES     
    9070 Si          81.9050    66.6900    27.2150 Si            1 RES     
    9071 O           66.5760    63.7940    13.5320 O             1 RES     
    9072 Si          70.3070    74.7460    29.8520 Si            1 RES     
    9073 O           80.4310    85.0220    25.7850 O             1 RES     
    9074 Si          92.8980    89.7550    11.7930 Si            1 RES     
    9075 Si          94.6300    82.1160     5.5620 Si            1 RES     
    9076 O           70.0660    79.8550    19.3490 O             1 RES     
    9077 Si          56.6730    78.6420     4.1830 Si            1 RES     
    9078 O           63.7190    76.7830    15.1490 O             1 RES     
    9079 O           85.2920    62.1580     4.2350 O             1 RES     
    9080 O           73.1660    65.8090     4.5290 O             1 RES     
    9081 O           86.2370    83.6100    13.1820 O             1 RES     
    9082 O           57.7920    69.5000     3.2450 O             1 RES     
    9083 Si          89.0220    89.1650     3.7950 Si            1 RES     
    9084 O           88.6900    89.3440     5.2950 O             1 RES     
    9085 O           85.2750    72.8940    23.4320 O             1 RES     
    9086 OS          68.2450    86.2320    26.7080 OS            1 RES     
    9087 O           73.5120    87.7170    26.8960 O             1 RES     
    9088 Si          86.8100    68.3440    17.3610 Si            1 RES     
    9089 O           75.9960    63.5130    26.5640 O             1 RES     
    9090 Si          70.5840    96.4850     9.0350 Si            1 RES     
    9091 O           76.6700    69.7830    28.1040 O             1 RES     
    9092 Si          76.1220    56.8770     3.7100 Si            1 RES     
    9093 O           70.6050    77.2480    10.9330 O             1 RES     
    9094 O           92.4750    93.0040     4.0240 O             1 RES     
    9095 O           98.6060    66.6050     3.7510 O             1 RES     
    9096 O           81.7590    78.7610    13.1040 O             1 RES     
    9097 O           67.4440    60.2380     6.5740 O             1 RES     
    9098 O           79.8050    59.3610     3.5760 O             1 RES     
    9099 O           74.9300    52.2730     5.9240 O             1 RES     
    9100 Si          81.2540    72.1560    13.7340 Si            1 RES     
    9101 O           78.3520    60.3970     1.7180 O             1 RES     
    9102 Si          65.1570    83.4620    25.0150 Si            1 RES     
    9103 O           95.0480    99.2860     3.9300 O             1 RES     
    9104 O           80.8310    66.4170    23.0220 O             1 RES     
    9105 O           63.8000    64.9750    20.9750 O             1 RES     
    9106 O           98.9510    91.4400     9.0160 O             1 RES     
    9107 O           74.0750    68.6860    17.3530 O             1 RES     
    9108 Si          73.2200    94.8880     8.7860 Si            1 RES     
    9109 OS          67.1770    56.4680    16.1600 OS            1 RES     
    9110 Si          60.4630    76.4380    25.2820 Si            1 RES     
    9111 O           96.5110    80.6330     8.0910 O             1 RES     
    9112 Si          52.9310    70.3950    11.4460 Si            1 RES     
    9113 O           79.7130    80.7790    30.0850 O             1 RES     
    9114 O           87.0440    86.4570     7.0990 O             1 RES     
    9115 OS          73.2340    95.3400    13.3730 OS            1 RES     
    9116 Si          54.5790    67.8720    12.0130 Si            1 RES     
    9117 O           81.9420    81.6430     9.0490 O             1 RES     
    9118 Si          70.8980    71.6300     7.9010 Si            1 RES     
    9119 O           70.6810    74.5750    10.5290 O             1 RES     
    9120 Si          99.8680    89.7510    11.6200 Si            1 RES     
    9121 O           90.3870    66.9050    22.4450 O             1 RES     
    9122 OS          80.6930    57.7350    19.3150 OS            1 RES     
    9123 O           96.8890    91.2540    10.2250 O             1 RES     
    9124 O           77.9750    92.7650    15.5640 O             1 RES     
    9125 Si          91.9310    79.5470    10.6970 Si            1 RES     
    9126 O           76.3910    70.8500    15.4620 O             1 RES     
    9127 O           50.9740    55.9620     6.5700 O             1 RES     
    9128 Si          67.5650    75.0000    26.0860 Si            1 RES     
    9129 OS          86.9320    63.8030    23.5030 OS            1 RES     
    9130 O           72.5730    82.9130    19.6330 O             1 RES     
    9131 Si          66.4620    79.0030    29.9100 Si            1 RES     
    9132 O           75.9310    82.5340    16.2710 O             1 RES     
    9133 O           65.6560    84.3010     8.0550 O             1 RES     
    9134 O           61.1760    99.7570    10.1540 O             1 RES     
    9135 O           69.0570    89.6160    17.4360 O             1 RES     
    9136 O           66.9850    70.3870     6.9930 O             1 RES     
    9137 O           71.1540    72.3680     9.2110 O             1 RES     
    9138 O           69.2650    57.9080    15.2150 O             1 RES     
    9139 Si          57.0370    54.9610    12.2210 Si            1 RES     
    9140 O           52.4470    50.3440    10.6000 O             1 RES     
    9141 O           64.0010    77.1980    24.8300 O             1 RES     
    9142 Si          84.4530    95.6960    12.7250 Si            1 RES     
    9143 O           76.4330    72.3670    28.5610 O             1 RES     
    9144 Si          66.7970    77.7150    18.7480 Si            1 RES     
    9145 Si          63.9130    87.4350    18.2730 Si            1 RES     
    9146 O           85.4760    50.9680    10.6270 O             1 RES     
    9147 O           88.3100    66.9160     6.8450 O             1 RES     
    9148 Si          99.5990    60.9130     3.3680 Si            1 RES     
    9149 O           89.9150    67.3170    19.6990 O             1 RES     
    9150 O           80.3820    90.4390    11.8390 O             1 RES     
    9151 OS          71.5970    59.3040    25.9910 OS            1 RES     
    9152 O           52.3780    98.0490     9.1800 O             1 RES     
    9153 O           60.0800    77.1930    14.9920 O             1 RES     
    9154 O           61.9200    85.5030     8.8340 O             1 RES     
    9155 O           59.5490    74.3070    21.2580 O             1 RES     
    9156 Si          61.6610    92.2820    11.3350 Si            1 RES     
    9157 OS          67.9350    70.1530    29.7170 OS            1 RES     
    9158 O           66.2840    52.2140     9.1100 O             1 RES     
    9159 O           78.8800    73.1380     6.8910 O             1 RES     
    9160 Si          65.1530    58.2330     3.0780 Si            1 RES     
    9161 O           87.6080    66.6840     3.1480 O             1 RES     
    9162 O           66.5280    73.4710     4.8550 O             1 RES     
    9163 O           52.0400    69.3430    10.6480 O             1 RES     
    9164 O           76.6770    82.2300     8.4070 O             1 RES     
    9165 O           84.8490    95.1810     8.5100 O             1 RES     
    9166 O           94.2890    89.3050    11.3820 O             1 RES     
    9167 O           83.8490    70.4930    11.2560 O             1 RES     
    9168 O           72.5550    89.5800     2.1820 O             1 RES     
    9169 Si          74.0280    61.6150    24.2420 Si            1 RES     
    9170 O           78.8850    71.3760    23.1310 O             1 RES     
    9171 O           92.6690    91.1440    11.1220 O             1 RES     
    9172 O           51.5370    76.3480    11.4820 O             1 RES     
    9173 O           81.1460    96.0030     2.2060 O             1 RES     
    9174 O           56.7110    87.0250     8.4600 O             1 RES     
    9175 O           90.4520    76.0420     4.4160 O             1 RES     
    9176 Si          67.4260    67.1960    16.2200 Si            1 RES     
    9177 O           64.7540    72.3010    24.9840 O             1 RES     
    9178 Si          51.4310    79.3570     4.3530 Si            1 RES     
    9179 Si          79.4410    94.1440     6.3630 Si            1 RES     
    9180 O           65.7220    86.6280    22.8200 O             1 RES     
    9181 Si          84.5620    87.2000    12.6940 Si            1 RES     
    9182 O           65.4150    67.9690     3.7480 O             1 RES     
    9183 O           66.8490    69.1340    27.7530 O             1 RES     
    9184 O           98.6890    79.9460     9.1440 O             1 RES     
    9185 Si          69.7040    85.1190     4.3010 Si            1 RES     
    9186 O           63.6570    72.6580    21.5200 O             1 RES     
    9187 OS          81.8180    92.2500    17.0150 OS            1 RES     
    9188 Si          59.2350    90.2780     8.5050 Si            1 RES     
    9189 OS          90.1580    84.0870    22.6500 OS            1 RES     
    9190 Si          63.9900    61.0940    15.1710 Si            1 RES     
    9191 O           60.1700    72.6780     3.4770 O             1 RES     
    9192 O           78.0260    98.4980     3.9550 O             1 RES     
    9193 Si          60.2590    57.0960     4.3300 Si            1 RES     
    9194 Si          60.7680    50.3680     4.1590 Si            1 RES     
    9195 O           57.4330    83.4430    10.3300 O             1 RES     
    9196 Si          67.2460    67.9350    21.9550 Si            1 RES     
    9197 O           87.5930    62.8270     9.0240 O             1 RES     
    9198 Si          83.2510    60.4300    17.2520 Si            1 RES     
    9199 O           89.2760    99.7930     5.2960 O             1 RES     
    9200 O           80.1130    59.8740    22.7290 O             1 RES     
    9201 O           77.0550    78.4870    21.7450 O             1 RES     
    9202 Si          90.4220    72.1860     8.0240 Si            1 RES     
    9203 O           91.5440    80.2860     5.8490 O             1 RES     
    9204 O           64.3970    88.4820    21.5530 O             1 RES     
    9205 Si          65.1180    73.4980     5.5180 Si            1 RES     
    9206 O           81.2930    79.1530    15.5050 O             1 RES     
    9207 O           82.3480    63.7970    24.2460 O             1 RES     
    9208 O           87.2250    94.6220     8.1630 O             1 RES     
    9209 O           71.3110    82.1510    21.7610 O             1 RES     
    9210 Si          87.4620    79.9450     6.6480 Si            1 RES     
    9211 O           78.2940    52.3970     9.6980 O             1 RES     
    9212 Si          99.9060    66.3460     2.8790 Si            1 RES     
    9213 O           73.7410    69.9770    19.5250 O             1 RES     
    9214 O           52.1370    71.5170    12.1680 O             1 RES     
    9215 O           93.6060    84.1830    10.4770 O             1 RES     
    9216 Si          90.0440    72.8680     2.7750 Si            1 RES     
    9217 Si          80.3540    99.4740    11.0060 Si            1 RES     
    9218 O           60.4660    78.0500     3.3230 O             1 RES     
    9219 O           93.5030    79.4090     4.0760 O             1 RES     
    9220 O           62.3350    84.3870    10.9070 O             1 RES     
    9221 Si          80.2830    85.4870    10.0540 Si            1 RES     
    9222 O           51.5180    57.7760    10.8100 O             1 RES     
    9223 OS          63.9350    98.6380    12.4890 OS            1 RES     
    9224 O           61.8470    65.4370     5.8870 O             1 RES     
    9225 Si          86.3330    91.9210    10.7280 Si            1 RES     
    9226 Si          85.4250    99.3560     9.7630 Si            1 RES     
    9227 O           70.1260    60.3950     6.6900 O             1 RES     
    9228 O           92.1540    53.4420    10.9540 O             1 RES     
    9229 OS          98.7590    54.2680    13.4230 OS            1 RES     
    9230 O           84.3070    95.7400    11.1810 O             1 RES     
    9231 Si          77.6140    70.4880    19.0640 Si            1 RES     
    9232 Si          78.9580    69.7090    12.6810 Si            1 RES     
    9233 O           63.5450    52.5430     3.3690 O             1 RES     
    9234 Si          60.8420    76.5980     2.8430 Si            1 RES     
    9235 Si          84.7910    78.9370    23.2900 Si            1 RES     
    9236 Si          70.2770    73.7320     5.6520 Si            1 RES     
    9237 O           89.1220    71.4870    21.7700 O             1 RES     
    9238 Si          64.4350    88.4700     8.2500 Si            1 RES     
    9239 O           64.3810    88.4590    11.4540 O             1 RES     
    9240 Si          90.9010    57.9910    12.3730 Si            1 RES     
    9241 Si          69.8480    59.1710    14.5010 Si            1 RES     
    9242 O           73.4000    81.4240    26.4500 O             1 RES     
    9243 Si          54.0140    62.4090     2.8490 Si            1 RES     
    9244 O           96.4900    55.3760     6.6270 O             1 RES     
    9245 Si          73.8000    74.7180    13.9410 Si            1 RES     
    9246 OS          63.5540    65.8770    26.6910 OS            1 RES     
    9247 O           93.7220    55.6280     2.8890 O             1 RES     
    9248 Si          75.1990    85.5000    19.4490 Si            1 RES     
    9249 OS          59.7740    58.0690    12.8280 OS            1 RES     
    9250 O           61.2780    72.8880     6.1010 O             1 RES     
    9251 Si          84.9060    69.1140     7.6960 Si            1 RES     
    9252 Si          70.9400    71.1020    13.9370 Si            1 RES     
    9253 O           64.3030    57.0030     3.5270 O             1 RES     
    9254 O           57.6360    54.7540     3.4860 O             1 RES     
    9255 O           51.1770    86.5940     7.9670 O             1 RES     
    9256 OS          61.1080    89.5610    13.4330 OS            1 RES     
    9257 Si          91.8900    86.6090     5.6030 Si            1 RES     
    9258 Si          58.3270    74.6850    10.8860 Si            1 RES     
    9259 O           80.7660    65.6640    27.6070 O             1 RES     
    9260 O           64.5250    65.3710    23.3130 O             1 RES     
    9261 Si          98.5580    87.0190     4.7550 Si            1 RES     
    9262 OS          87.8460    74.5910    27.6850 OS            1 RES     
    9263 O           84.3180    80.4250    18.4670 O             1 RES     
    9264 O           68.0280    74.1480     2.7820 O             1 RES     
    9265 O           88.2120    90.3700     3.1680 O             1 RES     
    9266 O           72.3190    74.8620    25.1920 O             1 RES     
    9267 O           63.2290    68.9340     4.1960 O             1 RES     
    9268 O           51.5240    92.1600     5.3490 O             1 RES     
    9269 O           84.2080    91.4020     2.9950 O             1 RES     
    9270 O           81.1600    80.7210    27.8130 O             1 RES     
    9271 O           59.9340    80.2440     7.3410 O             1 RES     
    9272 O           68.8050    66.4470    15.9740 O             1 RES     
    9273 O           52.0630    65.5610     2.9380 O             1 RES     
    9274 O           60.8820    77.5040    26.3830 O             1 RES     
    9275 OS          60.4060    71.4140    27.6250 OS            1 RES     
    9276 O           85.5300    84.1530    20.5920 O             1 RES     
    9277 Si          77.0240    78.3330     8.6310 Si            1 RES     
    9278 O           64.7430    74.4600    20.1080 O             1 RES     
    9279 O           85.8430    55.7330    11.5410 O             1 RES     
    9280 O           77.5350    52.5990     5.9240 O             1 RES     
    9281 Si          93.6470    56.3850     4.3100 Si            1 RES     
    9282 OS          77.5550    69.0000    32.3090 OS            1 RES     
    9283 O           92.4490    95.0810     5.6010 O             1 RES     
    9284 O           82.9010    60.6860    15.7000 O             1 RES     
    9285 O           88.6840    84.5900     7.1850 O             1 RES     
    9286 Si          93.7680    76.7680     6.7440 Si            1 RES     
    9287 O           70.0360    84.2170    15.6750 O             1 RES     
    9288 Si          92.4550    81.3330    13.0540 Si            1 RES     
    9289 O           82.5550    81.9310    22.5890 O             1 RES     
    9290 OS          70.2840    57.2660    18.2020 OS            1 RES     
    9291 O           97.2250    76.1170     2.2900 O             1 RES     
    9292 O           64.5790    75.3920    17.4110 O             1 RES     
    9293 O           54.9090    67.5310    10.4690 O             1 RES     
    9294 O           78.7750    55.2600     1.7050 O             1 RES     
    9295 Si          81.4390    71.9590     5.0050 Si            1 RES     
    9296 O           66.8570    64.6760    23.7360 O             1 RES     
    9297 Si          71.4930    60.7350     7.5580 Si            1 RES     
    9298 O           63.9710    56.4620     5.8890 O             1 RES     
    9299 Si          75.5720    69.2200    23.8770 Si            1 RES     
    9300 O           83.0330    63.1450     8.0570 O             1 RES     
    9301 O           75.2960    75.8960    24.9570 O             1 RES     
    9302 Si          84.9240    83.4730     4.7240 Si            1 RES     
    9303 O           67.3600    91.1060    13.5630 O             1 RES     
    9304 OS          70.8690    74.0280    31.1420 OS            1 RES     
    9305 O           76.3210    82.7020    13.5690 O             1 RES     
    9306 Si          81.5440    91.4570    12.4750 Si            1 RES     
    9307 O           79.3740    93.0310     2.4190 O             1 RES     
    9308 Si          59.1410    80.6020    22.4750 Si            1 RES     
    9309 O           75.4890    63.7300    12.0520 O             1 RES     
    9310 OS          58.2040    84.6010    17.2410 OS            1 RES     
    9311 Si          91.1940    75.4280     5.6740 Si            1 RES     
    9312 Si          75.0190    83.6200     4.5810 Si            1 RES     
    9313 O           73.1240    60.3070    15.9810 O             1 RES     
    9314 O           75.8520    87.3180     4.9610 O             1 RES     
    9315 O           76.2680    72.5560     2.5550 O             1 RES     
    9316 O           83.7020    53.5210     8.8710 O             1 RES     
    9317 Si          99.5320    86.2110     7.5480 Si            1 RES     
    9318 O           57.9020    62.8950     5.8120 O             1 RES     
    9319 Si          82.6620    71.5750    11.0900 Si            1 RES     
    9320 OS          91.9370    82.4220    21.5400 OS            1 RES     
    9321 Si          80.8850    91.0100    17.3940 Si            1 RES     
    9322 O           71.5930    86.9570    20.6450 O             1 RES     
    9323 Si          91.8410    87.7970     9.8630 Si            1 RES     
    9324 O           71.8970    85.7580    17.1770 O             1 RES     
    9325 O           79.5060    76.1850    27.7150 O             1 RES     
    9326 Si          74.5060    71.6140    25.4230 Si            1 RES     
    9327 O           74.8970    88.6820     9.4090 O             1 RES     
    9328 O           69.4320    80.9940     8.6450 O             1 RES     
    9329 O           73.0340    56.4600    10.7360 O             1 RES     
    9330 Si          56.1230    71.0220     6.0700 Si            1 RES     
    9331 O           76.2580    57.8970     4.8800 O             1 RES     
    9332 O           68.3460    76.3680    22.3350 O             1 RES     
    9333 O           74.7020    77.8820     4.0000 O             1 RES     
    9334 O           73.2550    76.3280    23.5300 O             1 RES     
    9335 O           56.7870    93.4910    11.0880 O             1 RES     
    9336 OS          92.1120    67.1750    20.6520 OS            1 RES     
    9337 O           54.7200    76.2960     6.7230 O             1 RES     
    9338 O           87.7030    78.5370     7.3720 O             1 RES     
    9339 O           84.9560    83.9470    11.0150 O             1 RES     
    9340 O           64.4000    71.2030    10.7780 O             1 RES     
    9341 O           78.8190    83.8260    24.4800 O             1 RES     
    9342 O           67.2170    74.9120    13.6390 O             1 RES     
    9343 Si          68.2660    56.6350    15.0250 Si            1 RES     
    9344 O           54.4340    96.6510     3.6400 O             1 RES     
    9345 O           80.7400    91.4030     3.7310 O             1 RES     
    9346 O           54.3840    63.3880    11.0640 O             1 RES     
    9347 O           62.7900    69.7650    17.2320 O             1 RES     
    9348 O           72.1030    61.6210    13.7130 O             1 RES     
    9349 Si          81.4340    97.1230     9.0250 Si            1 RES     
    9350 Si          84.6580    73.2910    18.0310 Si            1 RES     
    9351 O           89.3600    80.4980    17.6530 O             1 RES     
    9352 OS          86.8030    92.6740    12.0850 OS            1 RES     
    9353 Si          72.1270    85.1590     9.6950 Si            1 RES     
    9354 Si          54.3300    91.3140     8.1820 Si            1 RES     
    9355 Si          60.1830    85.9490    12.9900 Si            1 RES     
    9356 Si          80.9990    64.0440    15.3900 Si            1 RES     
    9357 O           90.7490    78.5730    10.2950 O             1 RES     
    9358 O           82.6930    90.5850     4.9870 O             1 RES     
    9359 O           81.9860    53.9110     4.1460 O             1 RES     
    9360 O           80.8470    75.4400    19.9720 O             1 RES     
    9361 O           95.5510    59.8530     8.1410 O             1 RES     
    9362 Si          80.2600    76.5190     5.2240 Si            1 RES     
    9363 O           80.0750    64.8900    25.0810 O             1 RES     
    9364 Si          80.8330    66.8930    12.4020 Si            1 RES     
    9365 Si          83.1600    78.3150     9.5480 Si            1 RES     
    9366 OS          94.0770    97.9320    12.2840 OS            1 RES     
    9367 O           97.5480    88.0060     5.6180 O             1 RES     
    9368 Si          87.6450    77.2860     8.3550 Si            1 RES     
    9369 O           77.5640    74.5850    13.4620 O             1 RES     
    9370 Si          67.1250    68.3300    13.4100 Si            1 RES     
    9371 O           57.1940    74.1080     3.5390 O             1 RES     
    9372 Si          66.4750    50.4530     5.0370 Si            1 RES     
    9373 O           69.0150    83.9640    12.9490 O             1 RES     
    9374 O           67.0410    60.5990    15.7530 O             1 RES     
    9375 O           63.1780    81.1570    22.1060 O             1 RES     
    9376 Si          63.7360    96.8480     4.7960 Si            1 RES     
    9377 O           95.7160    53.1720     7.7260 O             1 RES     
    9378 O           97.2460    93.8840     6.4930 O             1 RES     
    9379 O           83.8920    57.0090    12.1530 O             1 RES     
    9380 Si          89.0750    55.0900     3.8950 Si            1 RES     
    9381 O           64.8860    70.3730    20.7840 O             1 RES     
    9382 O           57.5480    71.7370     2.2120 O             1 RES     
    9383 Si          58.7090    79.5450    12.8640 Si            1 RES     
    9384 O           73.3460    83.7330    14.3400 O             1 RES     
    9385 O           88.7150    61.9880     2.8450 O             1 RES     
    9386 O           73.8410    60.0350    13.5690 O             1 RES     
    9387 O           67.3960    95.5620     7.7220 O             1 RES     
    9388 Si          75.4570    50.0150     8.9280 Si            1 RES     
    9389 O           76.8410    81.3830    11.3970 O             1 RES     
    9390 O           72.0350    83.4210    17.2280 O             1 RES     
    9391 Si          56.6870    78.7520     8.6050 Si            1 RES     
    9392 O           70.8880    62.7790    18.5030 O             1 RES     
    9393 O           72.9350    58.4130     3.4420 O             1 RES     
    9394 O           89.6580    73.4910     8.2180 O             1 RES     
    9395 O           90.5220    63.4140     7.5850 O             1 RES     
    9396 O           81.2210    67.9720    26.6540 O             1 RES     
    9397 O           72.3140    61.3710    19.9840 O             1 RES     
    9398 OS          70.5040    80.7890    31.4550 OS            1 RES     
    9399 O           62.5910    90.7200     5.2870 O             1 RES     
    9400 O           79.9960    71.1650    13.4540 O             1 RES     
    9401 Si          91.0860    62.8460     6.2010 Si            1 RES     
    9402 O           64.3540    80.2500    20.0840 O             1 RES     
    9403 Si          66.5360    92.3980     6.8450 Si            1 RES     
    9404 O           55.2850    79.5070     8.5800 O             1 RES     
    9405 Si          95.8050    76.2980     2.8180 Si            1 RES     
    9406 O           63.0470    96.5060     7.9250 O             1 RES     
    9407 O           50.7180    99.8240     8.9760 O             1 RES     
    9408 O           76.0900    86.8100    19.3770 O             1 RES     
    9409 O           86.5360    65.8240    14.3420 O             1 RES     
    9410 O           88.6230    63.9870    13.4050 O             1 RES     
    9411 O           72.7700    63.6990    16.9670 O             1 RES     
    9412 Si          61.1980    85.2150    10.2120 Si            1 RES     
    9413 O           66.1250    77.2630     7.1250 O             1 RES     
    9414 O           92.0090    58.9310     6.7160 O             1 RES     
    9415 O           75.2410    61.0600    23.3460 O             1 RES     
    9416 O           79.4600    57.4260     7.0500 O             1 RES     
    9417 Si          74.4940    66.1220     5.1530 Si            1 RES     
    9418 Si          88.0740    73.2530    15.8930 Si            1 RES     
    9419 O           64.2950    74.3120     4.4240 O             1 RES     
    9420 Si          71.9260    76.2190    24.4290 Si            1 RES     
    9421 O           87.7810    71.3000    19.4560 O             1 RES     
    9422 O           79.1570    82.0700     6.3030 O             1 RES     
    9423 O           66.2070    92.0650     2.8460 O             1 RES     
    9424 O           69.4590    60.4200    15.3960 O             1 RES     
    9425 Si          69.7140    73.1690    27.2980 Si            1 RES     
    9426 O           66.4580    84.3310    21.8410 O             1 RES     
    9427 Si          59.1930    52.1070     6.1930 Si            1 RES     
    9428 O           76.1240    65.5840    27.8650 O             1 RES     
    9429 O           72.3780    60.9030     3.1270 O             1 RES     
    9430 O           79.5450    77.8690     5.5900 O             1 RES     
    9431 Si          68.9840    61.2550    25.1950 Si            1 RES     
    9432 O           74.8640    83.2170    25.6520 O             1 RES     
    9433 O           75.5440    67.6680    24.1610 O             1 RES     
    9434 Si          59.7130    85.8030     6.0890 Si            1 RES     
    9435 O           66.2530    89.6080     2.5560 O             1 RES     
    9436 O           86.1380    84.2730     4.0100 O             1 RES     
    9437 O           88.8820    92.7470     2.5550 O             1 RES     
    9438 O           91.4980    54.0980     6.5750 O             1 RES     
    9439 O           94.7810    91.7280     3.7870 O             1 RES     
    9440 O           63.5680    78.0060    20.2170 O             1 RES     
    9441 Si          71.5530    87.3940     5.0980 Si            1 RES     
    9442 O           65.2540    96.7190     5.0130 O             1 RES     
    9443 Si          68.3460    88.7620    18.5880 Si            1 RES     
    9444 Si          98.3050    58.8110     5.0710 Si            1 RES     
    9445 OS          58.6760    68.1420    22.8820 OS            1 RES     
    9446 O           75.9880    76.9320    27.2930 O             1 RES     
    9447 O           79.4760    91.2250    16.8130 O             1 RES     
    9448 Si          69.3380    86.4260     9.9850 Si            1 RES     
    9449 O           97.7060    58.7760     8.5610 O             1 RES     
    9450 O           71.0150    78.7930    29.8370 O             1 RES     
    9451 O           66.0610    56.3310     7.6540 O             1 RES     
    9452 O           65.5630    90.6850    20.2650 O             1 RES     
    9453 O           90.2300    86.4090    13.8110 O             1 RES     
    9454 OS          61.5630    85.2600    23.9230 OS            1 RES     
    9455 O           98.3560    60.4680     2.3570 O             1 RES     
    9456 Si          57.5970    65.8860     3.3550 Si            1 RES     
    9457 Si          83.3320    92.4600    10.1280 Si            1 RES     
    9458 Si          96.0100    86.0040     3.3990 Si            1 RES     
    9459 O           96.9380    90.5590     4.9240 O             1 RES     
    9460 O           69.4710    66.5230    19.0600 O             1 RES     
    9461 O           60.3410    76.7490    21.4820 O             1 RES     
    9462 Si          64.4050    68.2450     4.9420 Si            1 RES     
    9463 Si          67.5440    73.8160    14.8390 Si            1 RES     
    9464 O           83.8220    83.0890    24.4950 O             1 RES     
    9465 Si          71.8380    58.3830    21.6970 Si            1 RES     
    9466 O           96.1040    61.4080     5.6420 O             1 RES     
    9467 O           77.3830    58.8200     6.7370 O             1 RES     
    9468 O           66.6160    67.0370    22.9910 O             1 RES     
    9469 O           81.8700    65.0560     3.2500 O             1 RES     
    9470 Si          65.9070    60.0890     6.7220 Si            1 RES     
    9471 O           60.8390    65.5770    10.8400 O             1 RES     
    9472 O           86.0630    82.2110    22.1820 O             1 RES     
    9473 Si          53.8790    73.8550     9.3030 Si            1 RES     
    9474 O           60.9570    71.5610     8.4690 O             1 RES     
    9475 Si          57.0870    77.4220    11.3940 Si            1 RES     
    9476 O           92.1170    70.9600    11.0440 O             1 RES     
    9477 O           64.6650    78.9330    13.6520 O             1 RES     
    9478 Si          65.6640    79.9960    13.2650 Si            1 RES     
    9479 O           70.6870    58.3620    20.6330 O             1 RES     
    9480 O           91.2090    56.6220     7.2350 O             1 RES     
    9481 O           70.3420    73.8010    28.5940 O             1 RES     
    9482 OS          59.8880    66.1920    22.0850 OS            1 RES     
    9483 Si          53.2300    66.7320     5.8630 Si            1 RES     
    9484 O           75.0490    91.8660     6.4780 O             1 RES     
    9485 Si          51.2730    94.7730    10.5840 Si            1 RES     
    9486 O           52.6120    96.4420     7.0790 O             1 RES     
    9487 O           63.6390    99.8840    10.2120 O             1 RES     
    9488 O           80.6700    84.1810     9.2810 O             1 RES     
    9489 Si          91.1270    92.6480     8.1450 Si            1 RES     
    9490 O           90.0150    56.7220    12.7820 O             1 RES     
    9491 O           90.9210    75.6400    24.3610 O             1 RES     
    9492 OS          96.5220    64.8410    13.6800 OS            1 RES     
    9493 O           69.5030    87.4470    11.1780 O             1 RES     
    9494 O           90.1420    68.5980     7.4890 O             1 RES     
    9495 Si          56.7860    76.2800    20.2940 Si            1 RES     
    9496 O           56.4810    95.2430    12.8770 O             1 RES     
    9497 Si          85.8550    80.9730    18.7540 Si            1 RES     
    9498 O           53.6000    94.9390     4.7370 O             1 RES     
    9499 O           74.8780    85.9500    25.9320 O             1 RES     
    9500 O           90.1310    82.9500    10.1810 O             1 RES     
    9501 Si          76.6890    66.7210     3.0580 Si            1 RES     
    9502 Si          79.7300    64.6370    26.6330 Si            1 RES     
    9503 O           77.0820    79.2070    28.1020 O             1 RES     
    9504 O           73.2980    66.4810    11.5780 O             1 RES     
    9505 O           57.4210    83.3580     4.5400 O             1 RES     
    9506 O           97.3600    82.4420     2.6270 O             1 RES     
    9507 Si          63.8280    64.0380    19.7270 Si            1 RES     
    9508 O           88.3920    95.2230     3.4960 O             1 RES     
    9509 O           52.3880    68.0540     6.4230 O             1 RES     
    9510 O           75.3700    86.4550     2.4690 O             1 RES     
    9511 O           72.7450    80.9570    14.5870 O             1 RES     
    9512 Si          79.5330    83.7400    25.9420 Si            1 RES     
    9513 O           83.4470    63.1420     3.1830 O             1 RES     
    9514 O           74.0410    73.1650    13.5520 O             1 RES     
    9515 O           81.7080    84.5770    18.2260 O             1 RES     
    9516 O           86.7380    84.8560     9.1230 O             1 RES     
    9517 O           70.8910    77.7790    27.5270 O             1 RES     
    9518 Si          74.1700    60.4590    17.1580 Si            1 RES     
    9519 O           93.6660    85.3340     8.4330 O             1 RES     
    9520 O           89.8860    52.2040    10.2160 O             1 RES     
    9521 OS          99.6020    62.7850    13.2680 OS            1 RES     
    9522 O           83.9400    74.2910     2.7330 O             1 RES     
    9523 O           61.1720    68.9820     5.3790 O             1 RES     
    9524 O           64.0480    59.3350     3.0620 O             1 RES     
    9525 OS          69.9500    84.0360    28.7150 OS            1 RES     
    9526 O           67.7380    80.4450    24.2960 O             1 RES     
    9527 O           85.8400    68.1980    13.9900 O             1 RES     
    9528 O           95.4570    80.3800     2.5570 O             1 RES     
    9529 O           80.4140    68.1200    21.1180 O             1 RES     
    9530 O           84.2480    85.0790     8.7640 O             1 RES     
    9531 Si          69.0870    87.5630    23.5810 Si            1 RES     
    9532 O           64.3800    76.3200    10.8220 O             1 RES     
    9533 O           69.6910    86.4350    24.5580 O             1 RES     
    9534 O           86.8730    72.5890    27.0920 O             1 RES     
    9535 O           90.2780    65.7530    16.3120 O             1 RES     
    9536 Si          55.3480    99.4170    12.7330 Si            1 RES     
    9537 Si          61.8330    82.0030    21.9730 Si            1 RES     
    9538 O           91.5300    61.3990     6.3670 O             1 RES     
    9539 Si          61.4050    72.6560     4.4670 Si            1 RES     
    9540 O           88.6380    82.5650    14.3420 O             1 RES     
    9541 Si          68.4240    77.7450    21.4690 Si            1 RES     
    9542 O           90.7220    64.0150    14.4760 O             1 RES     
    9543 Si          55.4440    96.3220    12.6150 Si            1 RES     
    9544 Si          74.7660    71.1400    20.0660 Si            1 RES     
    9545 O           97.9650    53.8760     8.0230 O             1 RES     
    9546 Si          88.1100    61.3980    19.2680 Si            1 RES     
    9547 O           72.6100    74.2770     9.1200 O             1 RES     
    9548 O           58.7410    53.2920     5.2770 O             1 RES     
    9549 O           93.1120    63.3500    10.8740 O             1 RES     
    9550 O           90.3440    98.4660     7.4730 O             1 RES     
    9551 O           66.8190    80.6630    26.6380 O             1 RES     
    9552 OS          53.4810    54.3130    11.9250 OS            1 RES     
    9553 O           65.4450    87.0720    13.3770 O             1 RES     
    9554 Si          81.6280    60.0300    22.3540 Si            1 RES     
    9555 O           80.5520    82.6320    11.0970 O             1 RES     
    9556 O           64.9040    63.0700     7.7000 O             1 RES     
    9557 Si          93.4640    84.5120     4.1050 Si            1 RES     
    9558 O           87.2750    91.3190     6.3480 O             1 RES     
    9559 O           66.5790    58.1120     3.7590 O             1 RES     
    9560 O           94.9030    67.5790     9.8250 O             1 RES     
    9561 O           77.8590    83.9290    15.2690 O             1 RES     
    9562 O           92.4170    73.6620    11.1840 O             1 RES     
    9563 Si          61.8210    69.6120     4.0960 Si            1 RES     
    9564 O           54.2290    54.2180     9.5200 O             1 RES     
    9565 O           61.9240    53.5670     7.9060 O             1 RES     
    9566 Si          73.2640    78.3340     4.5650 Si            1 RES     
    9567 Si          60.6550    65.6260     6.9070 Si            1 RES     
    9568 Si          66.6240    97.4700     4.8540 Si            1 RES     
    9569 O           92.4230    93.5150    11.6360 O             1 RES     
    9570 O           94.6300    63.0840     4.7050 O             1 RES     
    9571 O           74.8870    73.7760     8.7800 O             1 RES     
    9572 Si          94.1340    64.4970    10.5390 Si            1 RES     
    9573 O           51.7890    61.3740     9.7400 O             1 RES     
    9574 Si          86.3550    98.1240     7.1680 Si            1 RES     
    9575 O           60.2310    99.0210     4.5630 O             1 RES     
    9576 O           78.3610    74.1750     9.0730 O             1 RES     
    9577 Si          65.6410    76.7090    27.9590 Si            1 RES     
    9578 O           70.6590    93.6390     4.2780 O             1 RES     
    9579 Si          69.3750    91.1540     7.3020 Si            1 RES     
    9580 O           80.9560    61.5940     8.6360 O             1 RES     
    9581 O           68.8340    59.1030    13.2000 O             1 RES     
    9582 O           68.5960    67.9340    13.0090 O             1 RES     
    9583 O           96.4730    51.5150     3.5410 O             1 RES     
    9584 Si          68.1270    63.5640    13.2330 Si            1 RES     
    9585 O           64.4580    68.5360    18.8470 O             1 RES     
    9586 O           62.2390    75.8070     3.0760 O             1 RES     
    9587 Si          65.9280    65.9040    23.7600 Si            1 RES     
    9588 OS          92.4800    73.8570    23.2740 OS            1 RES     
    9589 Si          76.9510    71.9610    16.4430 Si            1 RES     
    9590 O           57.1170    99.6020     8.2970 O             1 RES     
    9591 O           61.0990    65.4880    15.8520 O             1 RES     
    9592 O           60.0860    77.3170    23.9270 O             1 RES     
    9593 O           57.2630    90.2660     5.4760 O             1 RES     
    9594 O           85.8050    74.0590    21.4260 O             1 RES     
    9595 Si          55.9150    89.6130     6.0160 Si            1 RES     
    9596 O           53.6420    98.2090     1.7190 O             1 RES     
    9597 Si          59.3260    80.2780     8.7720 Si            1 RES     
    9598 O           71.8550    62.2470     7.6560 O             1 RES     
    9599 Si          82.0220    95.5090     3.4310 Si            1 RES     
    9600 O           78.5890    73.4270    21.2770 O             1 RES     
    9601 Si          76.3280    86.2830     3.8650 Si            1 RES     
    9602 Si          81.2120    80.8680    29.4740 Si            1 RES     
    9603 O           74.2520    70.5580    28.7590 O             1 RES     
    9604 Si          79.2960    99.2110     4.6370 Si            1 RES     
    9605 OS          64.7980    70.3850    28.3860 OS            1 RES     
    9606 Si          59.8470    99.8200    11.0250 Si            1 RES     
    9607 O           73.9500    85.9700    20.3010 O             1 RES     
    9608 O           73.2350    87.5940     5.5630 O             1 RES     
    9609 Si          85.4380    88.5950    15.3770 Si            1 RES     
    9610 O           54.4610    54.4630     6.6550 O             1 RES     
    9611 O           87.6840    54.5540     4.2990 O             1 RES     
    9612 O           78.4970    66.9070    20.1590 O             1 RES     
    9613 O           58.1540    93.7040     6.2390 O             1 RES     
    9614 O           66.5850    53.8740     7.1990 O             1 RES     
    9615 Si          93.4070    64.0150     4.5790 Si            1 RES     
    9616 O           79.2980    88.8270     7.6790 O             1 RES     
    9617 O           61.1760    82.9160    18.0470 O             1 RES     
    9618 O           79.3870    71.7350     9.2020 O             1 RES     
    9619 Si          72.7800    82.3810    18.1590 Si            1 RES     
    9620 O           80.1670    86.8030    22.1510 O             1 RES     
    9621 O           89.6110    75.7600    19.5690 O             1 RES     
    9622 O           91.2300    81.8670    18.9350 O             1 RES     
    9623 Si          69.1950    99.8120     3.6240 Si            1 RES     
    9624 O           88.6720    88.0910    11.0390 O             1 RES     
    9625 O           82.5430    68.4900    22.3180 O             1 RES     
    9626 Si          87.7770    85.5230     8.0530 Si            1 RES     
    9627 O           50.8420    73.7000    11.6950 O             1 RES     
    9628 Si          95.3090    96.5390     8.6930 Si            1 RES     
    9629 O           72.5500    65.1660    24.6090 O             1 RES     
    9630 O           90.1670    82.8790     5.9980 O             1 RES     
    9631 O           99.4920    62.2080     4.3130 O             1 RES     
    9632 Si          93.2470    68.1450     6.8110 Si            1 RES     
    9633 O           51.2610    95.9670     4.7330 O             1 RES     
    9634 OS          58.2290    70.2800    23.9610 OS            1 RES     
    9635 O           70.5560    56.5140    11.2540 O             1 RES     
    9636 Si          96.4700    71.9070     5.5860 Si            1 RES     
    9637 O           83.7270    54.7470    11.2180 O             1 RES     
    9638 O           88.1760    80.9040    21.4900 O             1 RES     
    9639 O           98.7680    89.6940    10.5490 O             1 RES     
    9640 Si          53.4020    51.0840     6.7640 Si            1 RES     
    9641 OS          79.7440    73.3910    31.8980 OS            1 RES     
    9642 O           71.3330    51.8710    11.3530 O             1 RES     
    9643 O           85.5060    61.1090     6.4490 O             1 RES     
    9644 O           76.7580    54.1720     8.6430 O             1 RES     
    9645 O           94.5140    78.1680    12.7980 O             1 RES     
    9646 Si          55.8150    73.1590    13.7230 Si            1 RES     
    9647 O           68.3610    62.5350    24.4280 O             1 RES     
    9648 O           87.1250    54.6340     6.7400 O             1 RES     
    9649 Si          92.0090    58.7670     3.2600 Si            1 RES     
    9650 Si          96.1000    62.5440     4.5270 Si            1 RES     
    9651 OS          99.5030    90.8540    12.6370 OS            1 RES     
    9652 O           61.7300    61.3630    10.8470 O             1 RES     
    9653 Si          60.5060    53.9990     8.3070 Si            1 RES     
    9654 O           81.9520    77.2090    21.3300 O             1 RES     
    9655 O           76.4340    92.8610    11.3620 O             1 RES     
    9656 Si          88.9200    84.7780    21.9560 Si            1 RES     
    9657 O           60.2690    70.2770    12.7150 O             1 RES     
    9658 O           54.0880    56.5780     5.0410 O             1 RES     
    9659 O           59.9380    88.8470    16.9920 O             1 RES     
    9660 Si          72.5610    91.4780    17.8700 Si            1 RES     
    9661 O           75.6680    80.8460    26.4810 O             1 RES     
    9662 Si          54.7960    95.1350     3.8250 Si            1 RES     
    9663 Si          67.2500    86.7620     5.3500 Si            1 RES     
    9664 O           72.6580    85.0170     8.1920 O             1 RES     
    9665 O           54.7760    61.3850     3.7570 O             1 RES     
    9666 Si          52.1730    80.1660    10.6390 Si            1 RES     
    9667 O           79.6660    59.5910    12.2180 O             1 RES     
    9668 O           53.1690    61.5260     1.8630 O             1 RES     
    9669 OS          87.3680    67.6410    28.0710 OS            1 RES     
    9670 Si          51.5830    69.4170     6.7290 Si            1 RES     
    9671 O           63.7550    75.8460    22.2250 O             1 RES     
    9672 Si          54.1910    80.4610     4.9740 Si            1 RES     
    9673 O           68.7420    69.2920     3.6040 O             1 RES     
    9674 Si          90.9800    74.3580    23.3830 Si            1 RES     
    9675 OS          79.6860    94.8840    11.6080 OS            1 RES     
    9676 O           73.6500    63.3610    27.6510 O             1 RES     
    9677 Si          71.1900    92.2330     4.8640 Si            1 RES     
    9678 O           80.7800    70.5740     4.9990 O             1 RES     
    9679 O           69.1700    69.3410     6.1340 O             1 RES     
    9680 OS          88.2280    79.4610    25.5240 OS            1 RES     
    9681 Si          71.9210    55.8130    11.6850 Si            1 RES     
    9682 O           80.8090    66.9810     1.4340 O             1 RES     
    9683 O           69.2280    84.6030     2.8800 O             1 RES     
    9684 Si          60.9930    61.5260    14.9280 Si            1 RES     
    9685 Si          58.2850    70.0840    16.4850 Si            1 RES     
    9686 Si          54.1090    55.0000     5.1770 Si            1 RES     
    9687 O           70.7900    71.9180    18.2520 O             1 RES     
    9688 O           65.0490    87.3450    17.2140 O             1 RES     
    9689 O           56.3600    68.8940     8.8740 O             1 RES     
    9690 O           56.2940    50.6990     3.4020 O             1 RES     
    9691 O           65.1280    53.2530    11.2180 O             1 RES     
    9692 Si          74.5940    66.9940    10.8350 Si            1 RES     
    9693 OS          63.7670    88.1480    23.7530 OS            1 RES     
    9694 Si          62.2190    97.6710     7.2280 Si            1 RES     
    9695 O           87.6340    93.1750     4.6860 O             1 RES     
    9696 OS          92.2680    64.2660    16.3000 OS            1 RES     
    9697 OS          90.8040    59.0420    13.7160 OS            1 RES     
    9698 Si          77.3070    95.2360     8.2250 Si            1 RES     
    9699 O           83.9980    72.9060     7.6760 O             1 RES     
    9700 O           57.2550    80.0260    13.2260 O             1 RES     
    9701 Si          82.7820    62.7480    19.3270 Si            1 RES     
    9702 O           85.2980    74.3200    26.9910 O             1 RES     
    9703 O           95.1190    87.2770     3.0810 O             1 RES     
    9704 O           56.8140    97.4990     9.5180 O             1 RES     
    9705 O           64.2680    93.1000     4.5660 O             1 RES     
    9706 O           91.9410    88.7310    11.1050 O             1 RES     
    9707 O           55.3760    90.2880     7.4140 O             1 RES     
    9708 O           90.1690    93.8500     4.6990 O             1 RES     
    9709 O           77.7100    90.7150     6.5120 O             1 RES     
    9710 O           90.9140    91.0570     8.2180 O             1 RES     
    9711 O           84.1110    89.3100    14.9850 O             1 RES     
    9712 O           80.0460    90.2740     5.7160 O             1 RES     
    9713 O           89.6660    77.1110    12.0460 O             1 RES     
    9714 O           67.3190    97.0070     3.5200 O             1 RES     
    9715 Si          82.9580    54.0070    10.1090 Si            1 RES     
    9716 Si          84.8320    84.0840    12.5900 Si            1 RES     
    9717 OS          57.6280    93.2180    13.5850 OS            1 RES     
    9718 Si          97.7210    76.6370     7.6180 Si            1 RES     
    9719 O           80.9160    76.5840     3.7620 O             1 RES     
    9720 Si          88.2830    79.3520    17.5800 Si            1 RES     
    9721 O           73.9220    92.3280    12.3240 O             1 RES     
    9722 O           75.8880    90.5100    13.6960 O             1 RES     
    9723 O           75.5170    88.9780    18.2690 O             1 RES     
    9724 O           86.9150    65.8830     8.6820 O             1 RES     
    9725 O           71.1230    97.8380     9.4230 O             1 RES     
    9726 O           71.3940    74.2170     4.6260 O             1 RES     
    9727 O           73.6420    87.3380    22.2320 O             1 RES     
    9728 O           88.1040    75.3190    12.6240 O             1 RES     
    9729 Si          82.5640    61.8050     8.6730 Si            1 RES     
    9730 O           83.7820    68.0900     7.4940 O             1 RES     
    9731 Si          71.9340    74.6750    17.5240 Si            1 RES     
    9732 O           59.2800    89.5730    11.9060 O             1 RES     
    9733 Si          78.5250    80.4280    17.6210 Si            1 RES     
    9734 O           78.5840    56.1690    19.3110 O             1 RES     
    9735 O           51.9720    51.2120     6.1930 O             1 RES     
    9736 O           96.1200    97.9080     8.9550 O             1 RES     
    9737 O           65.0400    95.0910     8.8960 O             1 RES     
    9738 O           90.8230    75.8370     1.9520 O             1 RES     
    9739 O           67.7700    89.8210    19.6540 O             1 RES     
    9740 Si          60.9620    76.3260    17.9020 Si            1 RES     
    9741 O           76.6920    91.0970    24.8580 O             1 RES     
    9742 Si          85.8790    67.7680    24.0370 Si            1 RES     
    9743 O           55.1570    83.7200     3.2020 O             1 RES     
    9744 O           90.8650    80.4400    20.8550 O             1 RES     
    9745 Si          93.0790    97.3120    11.1950 Si            1 RES     
    9746 O           84.4820    64.4860    27.5250 O             1 RES     
    9747 Si          89.5510    66.8440    17.7080 Si            1 RES     
    9748 OS          78.3570    82.1470    31.6030 OS            1 RES     
    9749 Si          60.1750    71.3110    18.5980 Si            1 RES     
    9750 O           71.8820    68.2290     2.1210 O             1 RES     
    9751 O           59.7870    91.1050     4.7360 O             1 RES     
    9752 O           56.1870    60.7460     5.5900 O             1 RES     
    9753 O           84.0590    99.7060     8.3830 O             1 RES     
    9754 O           96.9490    92.9200     4.2110 O             1 RES     
    9755 O           90.5380    89.4770     3.5280 O             1 RES     
    9756 O           75.0980    98.5330     8.5770 O             1 RES     
    9757 O           60.5230    70.1470    19.5610 O             1 RES     
    9758 Si          86.4540    76.4550    24.3680 Si            1 RES     
    9759 O           86.8300    60.7100    18.5260 O             1 RES     
    9760 Si          83.8420    95.4100     9.7360 Si            1 RES     
    9761 O           75.0480    60.7330    20.8840 O             1 RES     
    9762 Si          90.2310    74.5380    20.4410 Si            1 RES     
    9763 O           51.0700    79.6330     2.7850 O             1 RES     
    9764 O           81.7480    96.3360     4.7500 O             1 RES     
    9765 O           75.1740    71.4510    26.7730 O             1 RES     
    9766 Si          64.9430    74.2560    29.7220 Si            1 RES     
    9767 O           65.6040    81.9750    24.8430 O             1 RES     
    9768 OS          76.3160    55.2460    18.0660 OS            1 RES     
    9769 O           95.9950    75.4950     4.1030 O             1 RES     
    9770 O           83.9720    66.6100    14.8580 O             1 RES     
    9771 Si          74.4620    70.2280     4.2260 Si            1 RES     
    9772 O           51.2180    90.0580    10.7650 O             1 RES     
    9773 O           78.6930    72.9900    27.3820 O             1 RES     
    9774 O           99.7400    69.9800    10.4620 O             1 RES     
    9775 O           86.5850    57.6310    10.1330 O             1 RES     
    9776 O           82.3760    99.8430     3.1810 O             1 RES     
    9777 Si          76.2230    75.8580    26.1940 Si            1 RES     
    9778 O           78.6740    60.7080    14.1490 O             1 RES     
    9779 OS          79.5430    99.3210    12.4220 OS            1 RES     
    9780 Si          88.2170    98.4220    11.3390 Si            1 RES     
    9781 OS          64.8650    72.7340    29.3730 OS            1 RES     
    9782 O           77.3500    86.5040    12.2680 O             1 RES     
    9783 O           67.6640    62.7300    22.1510 O             1 RES     
    9784 O           71.5430    81.5880     9.9880 O             1 RES     
    9785 O           84.2360    77.1980    10.1070 O             1 RES     
    9786 Si          78.9930    55.7800     3.1930 Si            1 RES     
    9787 O           73.6510    90.4740    17.3730 O             1 RES     
    9788 O           66.7080    62.7920     9.7260 O             1 RES     
    9789 O           58.3120    78.2320    12.0050 O             1 RES     
    9790 Si          67.5100    75.8340    12.3960 Si            1 RES     
    9791 Si          62.8470    84.6350    23.1860 Si            1 RES     
    9792 O           72.1000    76.2570    17.3270 O             1 RES     
    9793 O           63.1120    95.4360     5.0930 O             1 RES     
    9794 O           71.0460    74.1260    18.8090 O             1 RES     
    9795 Si          86.4760    73.7290    22.8230 Si            1 RES     
    9796 OS          84.1080    92.0670    20.5440 OS            1 RES     
    9797 O           58.6580    88.8890     7.8230 O             1 RES     
    9798 O           75.4570    80.2240     5.8030 O             1 RES     
    9799 O           65.4610    80.9980    12.0200 O             1 RES     
    9800 O           70.9830    67.0100    12.4260 O             1 RES     
    9801 Si          67.4970    62.4210    18.1840 Si            1 RES     
    9802 O           52.5790    73.0990     5.9300 O             1 RES     
    9803 Si          73.6140    70.2550     7.2040 Si            1 RES     
    9804 O           62.8580    78.5260    10.3000 O             1 RES     
    9805 Si          99.4750    81.2930     5.8120 Si            1 RES     
    9806 O           80.2560    57.0160    13.1400 O             1 RES     
    9807 O           79.2370    63.6120    23.1880 O             1 RES     
    9808 O           51.0510    92.4950     2.7780 O             1 RES     
    9809 OS          59.4640    75.4220    25.9670 OS            1 RES     
    9810 O           97.2880    89.8280     7.4040 O             1 RES     
    9811 Si          68.5590    96.0310     6.8330 Si            1 RES     
    9812 Si          84.5940    62.1700     2.8700 Si            1 RES     
    9813 OS          61.3610    79.1430    28.2570 OS            1 RES     
    9814 Si          72.8780    82.3050    10.6540 Si            1 RES     
    9815 O           90.5280    65.8970     7.9670 O             1 RES     
    9816 O           76.3640    84.2520    27.2440 O             1 RES     
    9817 O           99.8640    71.4210    12.6100 O             1 RES     
    9818 Si          92.2390    53.0160     7.4680 Si            1 RES     
    9819 OS          53.7080    82.8340    13.4430 OS            1 RES     
    9820 O           75.3760    78.1920    29.5690 O             1 RES     
    9821 O           79.3570    73.9990    23.6070 O             1 RES     
    9822 O           52.5300    84.7780    12.6110 O             1 RES     
    9823 O           99.6160    66.5430    11.2260 O             1 RES     
    9824 Si          77.6710    75.6370    12.2540 Si            1 RES     
    9825 O           71.0690    82.2540    27.2020 O             1 RES     
    9826 O           59.4760    75.8230     3.2250 O             1 RES     
    9827 O           66.1200    68.1080    12.2320 O             1 RES     
    9828 Si          52.5000    86.8800     8.8330 Si            1 RES     
    9829 O           80.4540    75.9630    22.6710 O             1 RES     
    9830 O           89.1180    82.9820    18.3000 O             1 RES     
    9831 O           60.4580    69.5140    10.2270 O             1 RES     
    9832 O           81.5910    50.4320    11.3760 O             1 RES     
    9833 O           56.2520    53.0190     2.5250 O             1 RES     
    9834 O           73.7620    70.4510     5.6460 O             1 RES     
    9835 Si          61.0980    70.9070    26.2110 Si            1 RES     
    9836 O           56.4440    78.1370     2.6900 O             1 RES     
    9837 Si          82.9600    66.8100     7.8490 Si            1 RES     
    9838 O           95.8420    62.2230     2.9200 O             1 RES     
    9839 Si          77.7260    78.2960    13.6810 Si            1 RES     
    9840 Si          82.2490    84.8590     5.3880 Si            1 RES     
    9841 O           93.5730    69.3770     5.9410 O             1 RES     
    9842 O           91.4800    61.2340    10.4330 O             1 RES     
    9843 O           77.1300    69.9590    11.9050 O             1 RES     
    9844 O           93.1120    59.0960     2.1700 O             1 RES     
    9845 O           65.5340    75.4820     8.9350 O             1 RES     
    9846 O           78.6790    73.3450     2.1370 O             1 RES     
    9847 O           94.5210    67.3100     6.5560 O             1 RES     
    9848 O           63.6740    94.1950     7.0730 O             1 RES     
    9849 O           64.3730    64.0060    12.1490 O             1 RES     
    9850 Si          77.1810    93.8040    18.5830 Si            1 RES     
    9851 O           65.2320    74.6720     6.5390 O             1 RES     
    9852 Si          80.2070    88.5080    25.9600 Si            1 RES     
    9853 O           65.8670    62.4530    24.4350 O             1 RES     
    9854 O           60.0290    55.5380     8.3100 O             1 RES     
    9855 Si          75.5300    72.6310     7.8570 Si            1 RES     
    9856 O           52.1790    97.9090     3.7720 O             1 RES     
    9857 Si          78.9950    73.7520     5.4270 Si            1 RES     
    9858 OS          88.1090    60.7970    20.7190 OS            1 RES     
    9859 Si          53.1650    60.6790    10.1300 Si            1 RES     
    9860 O           82.1460    66.3300    20.9940 O             1 RES     
    9861 O           66.2890    78.8230     5.1010 O             1 RES     
    9862 O           67.3520    82.1840     7.5460 O             1 RES     
    9863 O           84.8070    89.4040     4.0380 O             1 RES     
    9864 Si          86.5260    92.5080     5.6500 Si            1 RES     
    9865 O           69.9540    56.7290     6.2850 O             1 RES     
    9866 OS          67.0820    78.8630    31.3500 OS            1 RES     
    9867 OS          54.6190    62.9200    13.5930 OS            1 RES     
    9868 O           52.3390    54.1420     7.6210 O             1 RES     
    9869 O           91.9660    80.8780     9.8350 O             1 RES     
    9870 Si          85.8660    99.2400     2.9200 Si            1 RES     
    9871 O           58.7220    68.7280     5.6150 O             1 RES     
    9872 OS          64.6250    53.0450    13.8430 OS            1 RES     
    9873 Si          85.9630    87.4350     6.4760 Si            1 RES     
    9874 Si          55.4570    65.2780     7.5350 Si            1 RES     
    9875 O           87.6030    75.7770    18.0400 O             1 RES     
    9876 O           77.9400    64.5790    12.6080 O             1 RES     
    9877 O           68.4570    78.8080    22.6370 O             1 RES     
    9878 Si          80.5110    75.0390    23.9430 Si            1 RES     
    9879 Si          93.3240    91.8310     3.2860 Si            1 RES     
    9880 Si          93.4030    96.2690     6.1900 Si            1 RES     
    9881 O           62.4410    61.0850    15.2010 O             1 RES     
    9882 Si          77.5470    60.7680    15.1570 Si            1 RES     
    9883 Si          79.6460    61.3040     7.7860 Si            1 RES     
    9884 O           86.5260    64.3320    10.5830 O             1 RES     
    9885 O           86.0060    93.7990     6.4990 O             1 RES     
    9886 Si          58.0120    64.4310     6.0600 Si            1 RES     
    9887 Si          58.8960    73.5080    13.6690 Si            1 RES     
    9888 Si          64.3610    87.3320    22.5900 Si            1 RES     
    9889 OS          70.3700    88.8240    24.2190 OS            1 RES     
    9890 Si          83.4970    64.3330    26.0100 Si            1 RES     
    9891 O           88.2490    68.3300     8.8490 O             1 RES     
    9892 OS          80.7710    89.9690    26.4380 OS            1 RES     
    9893 O           93.7310    69.8350     3.3930 O             1 RES     
    9894 O           77.6680    85.9060     3.0870 O             1 RES     
    9895 O           50.4900    93.5340    10.0180 O             1 RES     
    9896 O           63.6420    85.4190     6.9260 O             1 RES     
    9897 O           62.7540    61.4440     2.6230 O             1 RES     
    9898 Si          62.9910    77.1330    10.9580 Si            1 RES     
    9899 Si          73.8630    95.8620    11.9930 Si            1 RES     
    9900 O           69.8560    77.7830    20.7440 O             1 RES     
    9901 O           87.1260    84.4460    18.6110 O             1 RES     
    9902 O           72.2970    98.3590     5.3120 O             1 RES     
    9903 Si          75.9610    55.2320     7.8690 Si            1 RES     
    9904 O           83.4750    73.0650    17.0390 O             1 RES     
    9905 O           74.2940    51.8930     2.7680 O             1 RES     
    9906 O           66.4760    87.7040     4.3180 O             1 RES     
    9907 Si          65.2940    73.6800    24.4520 Si            1 RES     
    9908 O           72.5200    99.9330    12.4180 O             1 RES     
    9909 Si          87.4340    82.5980    13.1870 Si            1 RES     
    9910 O           88.9960    56.4630     3.1540 O             1 RES     
    9911 Si          60.7150    81.6810    12.0640 Si            1 RES     
    9912 O           84.5510    85.6090    12.8760 O             1 RES     
    9913 O           69.5470    71.2480    22.9630 O             1 RES     
    9914 Si          90.2900    67.2020     6.6710 Si            1 RES     
    9915 O           50.1750    67.8730     2.5890 O             1 RES     
    9916 O           72.1430    68.4870    24.0320 O             1 RES     
    9917 O           79.3950    80.0740    32.4900 O             1 RES     
    9918 O           94.9450    75.3230     1.8730 O             1 RES     
    9919 O           75.4540    66.6890     4.0590 O             1 RES     
    9920 O           71.2320    91.1290     3.7910 O             1 RES     
    9921 O           76.8160    80.6000    17.4200 O             1 RES     
    9922 O           97.9910    70.1320     7.5240 O             1 RES     
    9923 O           78.9260    51.4310     7.6320 O             1 RES     
    9924 Si          74.1400    56.9550     9.6920 Si            1 RES     
    9925 O           75.8170    72.7980    17.1220 O             1 RES     
    9926 Si          60.0460    95.8610    12.3140 Si            1 RES     
    9927 O           69.5920    96.6460     7.8140 O             1 RES     
    9928 O           99.2820    63.9790     6.4470 O             1 RES     
    9929 Si          82.7610    80.8370     8.0090 Si            1 RES     
    9930 O           86.0280    69.1090    11.6440 O             1 RES     
    9931 O           75.9280    86.2850     9.9660 O             1 RES     
    9932 O           70.8470    69.6300    26.0890 O             1 RES     
    9933 O           66.9410    51.5030    13.9450 O             1 RES     
    9934 Si          58.0890    59.1650     3.4690 Si            1 RES     
    9935 O           57.4840    93.0870     8.6110 O             1 RES     
    9936 Si          70.1150    83.9210    14.1370 Si            1 RES     
    9937 O           51.1320    77.7500     4.4110 O             1 RES     
    9938 O           84.6010    63.9700    22.6520 O             1 RES     
    9939 Si          91.8280    98.1740     7.9800 Si            1 RES     
    9940 Si          88.2600    59.3290     6.6120 Si            1 RES     
    9941 O           90.4440    95.0910    11.7210 O             1 RES     
    9942 O           72.1720    78.9880    12.0870 O             1 RES     
    9943 O           72.5850    92.3680     5.5940 O             1 RES     
    9944 OS          56.3640    50.9860    13.3560 OS            1 RES     
    9945 O           71.1010    68.6210     4.3820 O             1 RES     
    9946 O           78.6020    75.5380    10.9880 O             1 RES     
    9947 Si          95.1290    66.0420     5.8950 Si            1 RES     
    9948 O           57.5550    76.4680    15.3290 O             1 RES     
    9949 O           60.4100    81.5610    22.5790 O             1 RES     
    9950 OS          98.0560    95.4530    12.2910 OS            1 RES     
    9951 O           64.1680    74.4350     1.8690 O             1 RES     
    9952 Si          70.1540    72.7620    22.4870 Si            1 RES     
    9953 O           63.8490    63.9900     5.4690 O             1 RES     
    9954 Si          91.6930    72.5180     5.2840 Si            1 RES     
    9955 O           57.7250    60.1780     9.7690 O             1 RES     
    9956 Si          74.6240    81.6360    25.6000 Si            1 RES     
    9957 O           65.1780    91.4640     6.7210 O             1 RES     
    9958 O           50.5540    74.3760     6.7230 O             1 RES     
    9959 Si          88.2510    89.6490    11.1770 Si            1 RES     
    9960 O           75.2980    88.6860    25.3940 O             1 RES     
    9961 Si          66.6180    87.7820    14.0810 Si            1 RES     
    9962 OS          74.5210    77.1530    31.5940 OS            1 RES     
    9963 O           63.2470    54.9020     3.6700 O             1 RES     
    9964 O           61.5390    70.6390    15.1320 O             1 RES     
    9965 Si          67.6370    71.3620    13.0510 Si            1 RES     
    9966 Si          78.7650    77.5620    18.6940 Si            1 RES     
    9967 O           87.0490    58.3670     5.3170 O             1 RES     
    9968 O           77.8150    80.0820    25.7780 O             1 RES     
    9969 O           68.5340    59.5700     4.7320 O             1 RES     
    9970 Si          69.6710    65.3450    15.2940 Si            1 RES     
    9971 O           78.1010    57.5450     8.9600 O             1 RES     
    9972 O           54.4450    99.1510     3.9220 O             1 RES     
    9973 Si          84.1500    50.2340     6.9910 Si            1 RES     
    9974 O           78.9690    50.5530     5.4100 O             1 RES     
    9975 O           75.2910    95.2430    11.4690 O             1 RES     
    9976 OS          98.5810    50.0460    12.8100 OS            1 RES     
    9977 O           59.1010    91.7060     7.7430 O             1 RES     
    9978 O           73.3950    65.5370    13.9790 O             1 RES     
    9979 O           83.2850    78.3960    19.5940 O             1 RES     
    9980 Si          92.8910    73.1050    19.9720 Si            1 RES     
    9981 O           88.2860    69.0310    13.0940 O             1 RES     
    9982 Si          79.1450    84.8110    14.9840 Si            1 RES     
    9983 O           74.9220    74.5020    22.7190 O             1 RES     
    9984 Si          78.5250    78.8680    22.0040 Si            1 RES     
    9985 OS          98.7460    66.5420    13.5350 OS            1 RES     
    9986 O           52.8580    81.2520    11.5010 O             1 RES     
    9987 O           70.1720    83.6320    20.4000 O             1 RES     
    9988 O           83.4460    73.6470    22.0080 O             1 RES     
    9989 O           78.9490    82.9340     4.0500 O             1 RES     
    9990 Si          96.1820    63.6870    12.6920 Si            1 RES     
    9991 Si          59.1840    72.7480    21.1190 Si            1 RES     
    9992 O           72.4060    77.0210     4.5720 O             1 RES     
    9993 O           82.4200    72.4380     3.8130 O             1 RES     
    9994 Si          69.3320    87.9810     7.2560 Si            1 RES     
    9995 O           63.0730    83.9140    13.3170 O             1 RES     
    9996 O           69.5070    88.0820    19.4420 O             1 RES     
    9997 Si          76.0940    66.2250    23.9020 Si            1 RES     
    9998 OS          51.1850    99.5760    12.8470 OS            1 RES     
    9999 Si          73.2730    86.9670    11.8210 Si            1 RES     
   10000 O           75.0460    87.2640     7.3890 O             1 RES     
   10001 O           64.9480    69.2350     6.0250 O             1 RES     
   10002 Si          97.2880    98.5670     9.7450 Si            1 RES     
   10003 OS          79.7890    54.3610    13.8270 OS            1 RES     
   10004 Si          89.1580    55.4970    12.3780 Si            1 RES     
   10005 O           56.1050    85.7080     4.4190 O             1 RES     
   10006 Si          89.9440    87.6670    14.7690 Si            1 RES     
   10007 O           86.5980    52.3970    12.3880 O             1 RES     
   10008 Si          65.4760    70.6070     6.7620 Si            1 RES     
   10009 O           64.5900    83.3570    11.3350 O             1 RES     
   10010 Si          67.0470    50.9500    12.4370 Si            1 RES     
   10011 O           52.3170    57.2640     8.3850 O             1 RES     
   10012 OS          91.0790    63.2850    19.6890 OS            1 RES     
   10013 O           59.0200    86.3940     7.3610 O             1 RES     
   10014 OS          50.4130    86.1710    11.9020 OS            1 RES     
   10015 O           69.1620    82.1310    18.6470 O             1 RES     
   10016 Si          84.1780    84.6140    24.3850 Si            1 RES     
   10017 O           77.1190    90.5060    15.8810 O             1 RES     
   10018 O           66.1620    84.4580    24.3330 O             1 RES     
   10019 O           57.3160    67.2230    10.7510 O             1 RES     
   10020 O           76.7160    73.7090    19.4430 O             1 RES     
   10021 OS          91.2620    88.5490    15.0810 OS            1 RES     
   10022 O           98.3180    99.4250     8.8890 O             1 RES     
   10023 Si          96.3050    57.2390    11.5810 Si            1 RES     
   10024 Si          50.9870    72.4530    12.7220 Si            1 RES     
   10025 O           76.4740    66.1000     1.6920 O             1 RES     
   10026 O           67.3940    77.9960    20.2240 O             1 RES     
   10027 Si          77.7320    84.7100    23.6990 Si            1 RES     
   10028 OS          62.6550    93.2920    11.9990 OS            1 RES     
   10029 Si          90.6550    66.6930    20.9160 Si            1 RES     
   10030 O           64.0610    85.9790    18.9320 O             1 RES     
   10031 O           77.7350    76.3000    25.8370 O             1 RES     
   10032 O           68.7100    73.0840    18.7010 O             1 RES     
   10033 Si          82.0710    73.3420    16.4680 Si            1 RES     
   10034 OS          58.1300    53.5870    11.1090 OS            1 RES     
   10035 O           85.8420    68.3130    18.5770 O             1 RES     
   10036 Si          73.3160    79.6780    15.3210 Si            1 RES     
   10037 OS          93.5260    55.4500    13.6310 OS            1 RES     
   10038 O           62.0960    59.1050     6.9030 O             1 RES     
   10039 Si          84.7290    69.2200    10.7460 Si            1 RES     
   10040 Si          68.3360    61.4800    15.5160 Si            1 RES     
   10041 O           86.0220    67.6660    16.1700 O             1 RES     
   10042 O           59.8690    86.6850     4.6570 O             1 RES     
   10043 O           91.9290    67.3280     6.3350 O             1 RES     
   10044 O           59.4350    96.6280     4.5100 O             1 RES     
   10045 O           90.4240    58.4670     2.8820 O             1 RES     
   10046 O           66.1310    89.2250    14.1870 O             1 RES     
   10047 Si          89.6220    69.8540    13.4610 Si            1 RES     
   10048 Si          76.2590    57.5200    11.9100 Si            1 RES     
   10049 O           82.8230    96.4750     9.3520 O             1 RES     
   10050 Si          90.5080    75.1810    15.6850 Si            1 RES     
   10051 Si          56.6160    72.6860     3.5980 Si            1 RES     
   10052 O           77.6590    76.8770     8.9330 O             1 RES     
   10053 Si          65.6720    93.1520     3.8470 Si            1 RES     
   10054 O           94.8030    75.8370     6.1180 O             1 RES     
   10055 O           62.3800    50.3960     4.1410 O             1 RES     
   10056 O           89.3280   124.2340     3.1580 O             1 RES     
   10057 O           58.4580   148.5390     6.1960 O             1 RES     
   10058 O           59.9370   134.3450     9.7080 O             1 RES     
   10059 O           77.9310   120.9500     2.9650 O             1 RES     
   10060 Si          84.0510   121.9090     6.4800 Si            1 RES     
   10061 O           81.4160   117.1410     7.9150 O             1 RES     
   10062 O           57.4230   125.4710     6.7820 O             1 RES     
   10063 O           97.1120   103.1090     5.5400 O             1 RES     
   10064 O           82.8980   107.8050     9.9470 O             1 RES     
   10065 Si          88.7810   111.9610     4.5220 Si            1 RES     
   10066 O           78.2200   107.4620    11.4690 O             1 RES     
   10067 O           91.5420   122.2820     9.1930 O             1 RES     
   10068 Si          51.2140   126.3900     3.6200 Si            1 RES     
   10069 O           82.1660   142.1050     9.0280 O             1 RES     
   10070 O           76.2930   146.3710     7.6460 O             1 RES     
   10071 O           67.5360   125.3840     7.5700 O             1 RES     
   10072 OS          95.4190   133.1370    12.1080 OS            1 RES     
   10073 Si          87.4340   104.1390     8.1680 Si            1 RES     
   10074 O           85.4360   132.8570     8.7280 O             1 RES     
   10075 O           73.7070   124.5910     4.9950 O             1 RES     
   10076 O           59.6650   131.9680     5.7910 O             1 RES     
   10077 Si          95.4860   122.8860    10.2000 Si            1 RES     
   10078 Si          69.9930   118.2280    12.3350 Si            1 RES     
   10079 O           74.5250   130.7410     7.9630 O             1 RES     
   10080 O           82.6640   141.9310    11.4990 O             1 RES     
   10081 O           56.5590   127.3500     5.0100 O             1 RES     
   10082 Si          58.9520   133.0600     4.9870 Si            1 RES     
   10083 O           90.1130   125.9410     9.7650 O             1 RES     
   10084 O           70.6210   137.5380     6.4480 O             1 RES     
   10085 Si          74.6920   129.4830     6.9840 Si            1 RES     
   10086 Si          69.3940   115.7420     5.6330 Si            1 RES     
   10087 O           79.8760   111.7970     6.2890 O             1 RES     
   10088 O           87.9360   130.6050     3.1040 O             1 RES     
   10089 O           99.3000   143.1650     4.7740 O             1 RES     
   10090 O           99.2410   115.4300     8.7790 O             1 RES     
   10091 Si          66.0040   125.6960     7.5250 Si            1 RES     
   10092 O           60.2360   103.4110     9.6970 O             1 RES     
   10093 O           93.4210   128.2730     6.3950 O             1 RES     
   10094 O           50.1870   140.6520     3.9740 O             1 RES     
   10095 O           61.9330   136.8760     3.0060 O             1 RES     
   10096 Si          93.8870   100.3740     7.3530 Si            1 RES     
   10097 O           73.3580   112.3080    11.7210 O             1 RES     
   10098 Si          75.3870   141.5760    12.4880 Si            1 RES     
   10099 O           96.0860   121.2950     7.0170 O             1 RES     
   10100 O           71.7340   106.6160     4.3500 O             1 RES     
   10101 O           73.6280   138.4180    11.4120 O             1 RES     
   10102 O           98.4240   130.3200     6.4430 O             1 RES     
   10103 O           64.8410   123.7240    11.1040 O             1 RES     
   10104 O           63.8720   107.7270     8.0010 O             1 RES     
   10105 O           92.9320   135.6550     5.0210 O             1 RES     
   10106 Si          64.9580   122.2990    11.7660 Si            1 RES     
   10107 Si          51.3660   123.9370     5.4410 Si            1 RES     
   10108 OS          67.8410   137.7820    13.0870 OS            1 RES     
   10109 O           52.1070   145.4170     9.4240 O             1 RES     
   10110 Si          73.7100   128.9220    12.3920 Si            1 RES     
   10111 O           88.9530   135.4330    11.0830 O             1 RES     
   10112 O           68.9750   137.1960     8.6150 O             1 RES     
   10113 O           70.4090   149.8920     4.6600 O             1 RES     
   10114 OS          95.0010   136.9310    13.7540 OS            1 RES     
   10115 O           96.3590   138.6730     9.4100 O             1 RES     
   10116 Si          80.3630   142.9570     3.6210 Si            1 RES     
   10117 O           72.5390   100.6400     1.6870 O             1 RES     
   10118 Si          97.8950   143.8810     5.0840 Si            1 RES     
   10119 O           71.7380   145.4450     8.6830 O             1 RES     
   10120 O           79.7260   134.7920    11.3840 O             1 RES     
   10121 O           78.0750   105.0820    10.5820 O             1 RES     
   10122 Si          74.9300   147.1050     7.6980 Si            1 RES     
   10123 O           99.2420   147.3080     4.1190 O             1 RES     
   10124 O           80.4550   107.1310    10.0400 O             1 RES     
   10125 Si          73.1700   107.2460     4.4180 Si            1 RES     
   10126 O           72.6910   140.0080     9.8390 O             1 RES     
   10127 O           59.2430   134.4260     5.6130 O             1 RES     
   10128 Si          85.9510   145.0840     7.4200 Si            1 RES     
   10129 O           63.0020   114.6690    10.0680 O             1 RES     
   10130 Si          72.3030   118.2180     3.4300 Si            1 RES     
   10131 O           88.6920   144.6600     9.9650 O             1 RES     
   10132 Si          55.3750   136.6310     5.4460 Si            1 RES     
   10133 O           81.6610   106.9240     7.6810 O             1 RES     
   10134 OS          52.1040   144.4950    11.9170 OS            1 RES     
   10135 O           83.2710   137.6820     4.3090 O             1 RES     
   10136 OS          52.5230   137.1640    12.4500 OS            1 RES     
   10137 O           84.7990   141.8550    10.2240 O             1 RES     
   10138 Si          70.4020   145.1770     4.5950 Si            1 RES     
   10139 Si          80.0820   117.9670     7.9450 Si            1 RES     
   10140 O           80.5780   143.3520     7.2540 O             1 RES     
   10141 O           69.3900   132.4830    10.8440 O             1 RES     
   10142 O           88.7970   147.0110    10.9690 O             1 RES     
   10143 Si          89.4990   119.3740     8.7080 Si            1 RES     
   10144 O           92.9490   138.5760     2.4350 O             1 RES     
   10145 Si          53.8240   129.5800     7.9930 Si            1 RES     
   10146 O           87.3440   108.4030     7.9400 O             1 RES     
   10147 O           65.1020   137.0500     8.0510 O             1 RES     
   10148 O           59.6790   103.5510     2.8980 O             1 RES     
   10149 O           81.5790   143.9430     3.5960 O             1 RES     
   10150 Si          85.8900   112.3490     5.6510 Si            1 RES     
   10151 O           54.2640   109.0260     4.7800 O             1 RES     
   10152 O           94.0270   115.3980     4.9560 O             1 RES     
   10153 OS          88.3090   133.0360    11.9640 OS            1 RES     
   10154 Si          82.8510   129.5180    12.2650 Si            1 RES     
   10155 O           72.9350   141.4540     7.9210 O             1 RES     
   10156 O           80.0370   149.7050     3.3810 O             1 RES     
   10157 Si          53.5000   138.7530     4.4320 Si            1 RES     
   10158 O           88.2010   110.6540     7.5920 O             1 RES     
   10159 O           59.7210   144.1600     8.4230 O             1 RES     
   10160 O           88.4650   125.9060     8.1340 O             1 RES     
   10161 O           56.0940   116.2190     8.6880 O             1 RES     
   10162 Si          65.1630   135.7140     7.3010 Si            1 RES     
   10163 OS          57.6490   116.0520    13.1470 OS            1 RES     
   10164 O           81.1850   107.8320     5.0870 O             1 RES     
   10165 O           74.1550   146.1000     8.5750 O             1 RES     
   10166 O           58.2810   106.0230    12.1260 O             1 RES     
   10167 O           95.3310   124.4320     9.8760 O             1 RES     
   10168 Si          75.6960   137.4590     8.8510 Si            1 RES     
   10169 OS          52.2070   113.1450    12.8520 OS            1 RES     
   10170 O           99.6470   115.8970     1.3740 O             1 RES     
   10171 Si          65.9380   132.7240     8.1010 Si            1 RES     
   10172 Si          57.5200   144.1720    12.3700 Si            1 RES     
   10173 O           80.4440   123.0700     5.2210 O             1 RES     
   10174 O           96.7050   147.7370     5.0130 O             1 RES     
   10175 O           61.4490   107.4630     8.7760 O             1 RES     
   10176 Si          73.7950   101.6760     6.8390 Si            1 RES     
   10177 O           52.8600   130.0720     9.2260 O             1 RES     
   10178 Si          71.9800   130.9280     3.3940 Si            1 RES     
   10179 O           74.3500   118.9630     7.6670 O             1 RES     
   10180 O           58.7010   116.3040     2.2870 O             1 RES     
   10181 Si          72.5320   125.0840     4.1390 Si            1 RES     
   10182 O           53.2820   109.1310    10.0050 O             1 RES     
   10183 Si          68.5560   133.6670    11.4620 Si            1 RES     
   10184 O           67.6690   129.6720     7.1160 O             1 RES     
   10185 Si          70.2150   106.4960     4.7090 Si            1 RES     
   10186 Si          76.0590   140.8180     5.8490 Si            1 RES     
   10187 O           78.9650   138.7850    10.2090 O             1 RES     
   10188 O           90.1500   116.6990     2.3940 O             1 RES     
   10189 Si          99.4280   100.5340     8.6050 Si            1 RES     
   10190 O           54.7720   121.7590     6.4550 O             1 RES     
   10191 O           74.2530   133.2980     7.8670 O             1 RES     
   10192 Si          60.7020   130.7490     6.1000 Si            1 RES     
   10193 O           92.6700   105.6730     5.2900 O             1 RES     
   10194 Si          64.2700   149.9640    11.6860 Si            1 RES     
   10195 O           56.6100   121.1300    10.0300 O             1 RES     
   10196 O           99.4510   111.8250    10.8060 O             1 RES     
   10197 O           91.1260   113.8420     9.8870 O             1 RES     
   10198 O           95.6810   115.0260     7.0230 O             1 RES     
   10199 O           96.7460   126.3010     8.8480 O             1 RES     
   10200 O           77.8520   130.1570     5.1630 O             1 RES     
   10201 O           64.0080   116.7380     5.3380 O             1 RES     
   10202 O           77.0560   141.8310     1.9940 O             1 RES     
   10203 Si          63.3490   124.6240     3.2190 Si            1 RES     
   10204 O           75.9020   134.8710     4.4290 O             1 RES     
   10205 O           70.1230   104.8830     4.5910 O             1 RES     
   10206 O           84.1470   115.1210    11.3000 O             1 RES     
   10207 Si          51.3730   122.1510     2.9220 Si            1 RES     
   10208 O           99.7900   125.9860     3.1710 O             1 RES     
   10209 O           82.2150   127.3290     8.7490 O             1 RES     
   10210 O           92.4190   113.5680     5.7240 O             1 RES     
   10211 O           87.2140   105.2770     9.2580 O             1 RES     
   10212 O           90.9980   123.4960     1.5910 O             1 RES     
   10213 OS          50.6460   127.9250    13.3760 OS            1 RES     
   10214 Si          50.8110   119.1590     9.6580 Si            1 RES     
   10215 O           80.5330   118.1760     4.0030 O             1 RES     
   10216 O           91.9850   133.4010     8.8860 O             1 RES     
   10217 OS          56.9590   138.8170    12.1150 OS            1 RES     
   10218 O           73.5630   128.8290     6.0310 O             1 RES     
   10219 Si          86.8960   106.1620    10.4730 Si            1 RES     
   10220 OS          80.9060   142.8970    12.8760 OS            1 RES     
   10221 O           72.3450   133.7720    10.4280 O             1 RES     
   10222 Si          88.7720   149.4470     3.8340 Si            1 RES     
   10223 Si          70.6320   128.6790    11.6590 Si            1 RES     
   10224 O           79.1060   109.9070     8.0490 O             1 RES     
   10225 O           54.3300   116.1090     6.8260 O             1 RES     
   10226 Si          96.1970   108.4660     8.6420 Si            1 RES     
   10227 O           81.4770   120.9200    10.3250 O             1 RES     
   10228 O           73.6740   113.7090     7.1970 O             1 RES     
   10229 O           75.7850   116.0530    11.2930 O             1 RES     
   10230 Si          75.0720   102.0650    11.2810 Si            1 RES     
   10231 O           56.5130   112.3630    10.0980 O             1 RES     
   10232 O           81.2430   126.1310     6.4910 O             1 RES     
   10233 O           79.5560   143.4330     4.9100 O             1 RES     
   10234 O           55.5290   129.6980     4.5780 O             1 RES     
   10235 Si          62.1290   129.9390     9.9840 Si            1 RES     
   10236 Si          92.9810   142.5610    10.5600 Si            1 RES     
   10237 O           50.0220   114.5270     4.1100 O             1 RES     
   10238 O           77.5270   106.1070     3.8020 O             1 RES     
   10239 OS          62.7250   103.7090    12.4850 OS            1 RES     
   10240 Si          59.4180   102.8310    10.8570 Si            1 RES     
   10241 O           81.6600   136.1520    10.5500 O             1 RES     
   10242 Si          68.5290   131.0570     7.4200 Si            1 RES     
   10243 OS          72.9530   145.1110    10.9490 OS            1 RES     
   10244 O           97.5310   128.1790     7.5710 O             1 RES     
   10245 O           72.0970   102.9560     3.5790 O             1 RES     
   10246 O           73.9750   147.1680     6.4300 O             1 RES     
   10247 Si          85.6350   107.7970     5.0950 Si            1 RES     
   10248 Si          65.2560   125.1420    10.4270 Si            1 RES     
   10249 O           68.6580   135.0890    10.6360 O             1 RES     
   10250 OS          70.2660   137.5690    13.8000 OS            1 RES     
   10251 O           79.7200   118.0810    12.3670 O             1 RES     
   10252 O           76.0000   119.8770     4.2940 O             1 RES     
   10253 O           91.0400   102.2550     8.1180 O             1 RES     
   10254 Si          76.5050   109.2230     5.5330 Si            1 RES     
   10255 O           86.9120   140.4130    10.7990 O             1 RES     
   10256 O           70.7340   115.2520     4.9050 O             1 RES     
   10257 O           69.4960   118.3400    10.8120 O             1 RES     
   10258 O           72.9330   102.9620     7.0930 O             1 RES     
   10259 O           96.3160   148.9330    13.3120 O             1 RES     
   10260 O           75.5590   123.5770     6.4960 O             1 RES     
   10261 O           84.9440   148.6380    11.0810 O             1 RES     
   10262 Si          75.5740   119.7440    11.9030 Si            1 RES     
   10263 O           50.6750   130.5180    10.5840 O             1 RES     
   10264 Si          69.9420   106.1710     7.7720 Si            1 RES     
   10265 Si          73.1990   112.0790     3.8050 Si            1 RES     
   10266 O           80.8380   105.4450     5.9680 O             1 RES     
   10267 O           95.9100   107.5290     7.3860 O             1 RES     
   10268 Si          53.6840   112.8230    12.3480 Si            1 RES     
   10269 OS          68.8100   144.6700    12.2700 OS            1 RES     
   10270 Si          88.0060   111.3040     9.0220 Si            1 RES     
   10271 O           70.9740   136.1480     4.3800 O             1 RES     
   10272 O           83.5230   145.4890     2.9160 O             1 RES     
   10273 O           73.1790   131.3580     2.5010 O             1 RES     
   10274 Si          59.2410   145.5480     3.3790 Si            1 RES     
   10275 Si          84.3650   105.5360    12.3320 Si            1 RES     
   10276 Si          89.6160   125.8090     3.1450 Si            1 RES     
   10277 O           78.8550   116.9830     8.2740 O             1 RES     
   10278 Si          60.8730   125.4460     9.4090 Si            1 RES     
   10279 OS          52.9380   127.3670    13.5110 OS            1 RES     
   10280 OS          83.3940   145.2420    13.7960 OS            1 RES     
   10281 Si          95.8650   131.8970     2.7980 Si            1 RES     
   10282 O           93.3990   105.4610    10.9030 O             1 RES     
   10283 O           95.3100   132.5620     6.9560 O             1 RES     
   10284 O           71.8170   145.9040     5.1190 O             1 RES     
   10285 O           92.0710   147.7170     9.4400 O             1 RES     
   10286 Si          85.4420   132.0520     7.3890 Si            1 RES     
   10287 O           95.1310   114.1860     9.3770 O             1 RES     
   10288 O           63.7230   101.3210    12.2550 O             1 RES     
   10289 O           78.4180   112.2310     8.3410 O             1 RES     
   10290 O           98.1150   103.6560     3.2300 O             1 RES     
   10291 O           74.3630   121.2010     2.9820 O             1 RES     
   10292 Si          50.4750   139.2730     4.6870 Si            1 RES     
   10293 Si          99.8290   117.2240    12.6160 Si            1 RES     
   10294 O           61.8830   142.9360     5.5030 O             1 RES     
   10295 O           98.1000   118.5900     5.2710 O             1 RES     
   10296 Si          63.5760   145.1310     8.3190 Si            1 RES     
   10297 O           57.9420   129.6150     8.5510 O             1 RES     
   10298 O           69.4490   116.2870     9.2650 O             1 RES     
   10299 O           71.8720   133.0660     6.7000 O             1 RES     
   10300 Si          78.1680   132.5160     7.8900 Si            1 RES     
   10301 O           59.3260   114.7530     6.8240 O             1 RES     
   10302 Si          83.4080   123.7200     8.8770 Si            1 RES     
   10303 O           72.0920   120.6210     7.5910 O             1 RES     
   10304 O           53.4620   106.4040    10.5250 O             1 RES     
   10305 Si          87.3120   124.5400    11.4470 Si            1 RES     
   10306 O           76.2140   125.8960    11.8030 O             1 RES     
   10307 Si          89.0690   117.2800     3.3630 Si            1 RES     
   10308 O           88.6180   134.2620     4.5350 O             1 RES     
   10309 Si          87.6040   134.2130     3.3530 Si            1 RES     
   10310 O           50.7970   142.5890     7.7990 O             1 RES     
   10311 O           72.2110   113.2820     3.8790 O             1 RES     
   10312 O           53.3010   142.0190     7.2270 O             1 RES     
   10313 O           92.6960   140.5310     3.8590 O             1 RES     
   10314 Si          67.0000   105.1450     8.0970 Si            1 RES     
   10315 O           97.1890   125.8760     6.4000 O             1 RES     
   10316 O           92.6210   118.3830    10.7470 O             1 RES     
   10317 O           58.0760   115.1190     4.6190 O             1 RES     
   10318 Si          95.0950   138.4250    10.3500 Si            1 RES     
   10319 O           95.8150   100.0320     1.4580 O             1 RES     
   10320 Si          62.9980   131.8610     7.7030 Si            1 RES     
   10321 O           68.4430   118.7220     8.4660 O             1 RES     
   10322 O           74.4370   116.7460     6.5860 O             1 RES     
   10323 Si          64.9540   112.9100     6.0530 Si            1 RES     
   10324 O           64.9650   118.7910     9.9840 O             1 RES     
   10325 O           87.9870   144.9430    12.3720 O             1 RES     
   10326 Si          74.7280   126.1950    11.4530 Si            1 RES     
   10327 O           97.3630   132.9210     8.3330 O             1 RES     
   10328 O           82.0960   116.7640    11.4900 O             1 RES     
   10329 O           84.8860   147.1780    12.9650 O             1 RES     
   10330 O           62.7500   115.3170     3.5650 O             1 RES     
   10331 O           85.1600   141.7720     5.1760 O             1 RES     
   10332 O           96.3020   143.3040     9.1230 O             1 RES     
   10333 O           71.4630   114.5980     8.6160 O             1 RES     
   10334 O           88.8250   147.9060     3.5560 O             1 RES     
   10335 O           83.4650   101.9990     3.7860 O             1 RES     
   10336 O           77.3030   114.6550     8.4230 O             1 RES     
   10337 O           74.3010   127.5890    11.8080 O             1 RES     
   10338 O           68.4060   147.3430    11.6440 O             1 RES     
   10339 O           56.4100   119.6400     5.3440 O             1 RES     
   10340 Si          98.5780   119.7920     6.0330 Si            1 RES     
   10341 Si          63.2120   106.2720     4.4060 Si            1 RES     
   10342 Si          88.8670   143.7710     3.9090 Si            1 RES     
   10343 O           66.1730   135.9180     6.1790 O             1 RES     
   10344 Si          96.9800   102.9410     3.9820 Si            1 RES     
   10345 O           66.4210   148.9450     5.2640 O             1 RES     
   10346 OS          99.7980   138.4060    12.4830 OS            1 RES     
   10347 Si          78.4320   100.9860     9.0180 Si            1 RES     
   10348 O           53.7910   119.2340    12.2220 O             1 RES     
   10349 Si          87.3810   114.3720     9.2660 Si            1 RES     
   10350 O           89.6090   117.1140     4.7570 O             1 RES     
   10351 O           68.9850   123.2030     4.9360 O             1 RES     
   10352 O           83.3830   129.5890     8.6530 O             1 RES     
   10353 Si          56.5040   134.3540     3.6440 Si            1 RES     
   10354 OS          60.6390   141.7210    12.3230 OS            1 RES     
   10355 Si          71.8010   123.4750    10.1490 Si            1 RES     
   10356 O           82.1880   102.9370    11.0530 O             1 RES     
   10357 O           98.2850   137.1040     8.2830 O             1 RES     
   10358 Si          73.6110   142.4730     6.8000 Si            1 RES     
   10359 Si          89.1900   124.7630     8.9630 Si            1 RES     
   10360 OS          73.5860   147.4960    12.0860 OS            1 RES     
   10361 OS          85.6550   144.6830    12.9390 OS            1 RES     
   10362 O           88.8090   110.5150     5.0240 O             1 RES     
   10363 Si          57.5450   117.4300    12.2700 Si            1 RES     
   10364 O           61.9280   110.0130     4.3980 O             1 RES     
   10365 O           97.4460   112.9720    12.0550 O             1 RES     
   10366 O           66.4350   101.3450     6.4240 O             1 RES     
   10367 Si          60.3130   111.8920    10.4020 Si            1 RES     
   10368 O           61.2070   132.3640    13.4470 O             1 RES     
   10369 O           73.7810   146.8420     3.9060 O             1 RES     
   10370 OS          82.3080   140.5490    13.5250 OS            1 RES     
   10371 Si          64.6130   139.8490    10.8620 Si            1 RES     
   10372 O           73.8970   125.3580    12.4800 O             1 RES     
   10373 Si          59.0190   104.2510     4.0900 Si            1 RES     
   10374 O           75.1120   114.6520     5.4390 O             1 RES     
   10375 Si          94.0140   136.7140     7.7550 Si            1 RES     
   10376 OS          98.1550   110.7840    12.7930 OS            1 RES     
   10377 OS          64.5800   110.1050    13.9600 OS            1 RES     
   10378 OS          80.2540   115.4520    12.2440 OS            1 RES     
   10379 O           65.1430   139.4530     9.4470 O             1 RES     
   10380 Si          76.1430   103.1790     5.5820 Si            1 RES     
   10381 O           50.4530   103.1480     6.2690 O             1 RES     
   10382 O           96.8350   149.3910    10.9860 O             1 RES     
   10383 O           54.0590   136.5990     8.4880 O             1 RES     
   10384 Si          71.9700   114.8470     4.0010 Si            1 RES     
   10385 Si          55.4830   121.8870    10.9520 Si            1 RES     
   10386 O           62.9610   116.0130    12.0790 O             1 RES     
   10387 Si          68.5110   145.7810    11.1700 Si            1 RES     
   10388 OS          76.1120   106.5300    13.1560 OS            1 RES     
   10389 O           78.9550   111.6580     3.8450 O             1 RES     
   10390 O           66.8570   104.4800     9.5660 O             1 RES     
   10391 O           62.2070   131.3180     6.4880 O             1 RES     
   10392 Si          53.6610   147.9890     3.2660 Si            1 RES     
   10393 O           52.3810   138.3960     9.2630 O             1 RES     
   10394 O           66.4770   143.0330     5.4360 O             1 RES     
   10395 O           58.4010   137.8400     9.9930 O             1 RES     
   10396 Si          85.2360   126.0960     9.8200 Si            1 RES     
   10397 O           78.3920   145.5220     9.3080 O             1 RES     
   10398 Si          58.7650   109.9060     8.6400 Si            1 RES     
   10399 Si          81.1860   140.2060     4.6190 Si            1 RES     
   10400 O           83.9620   109.7730    11.3540 O             1 RES     
   10401 Si          79.9290   138.9810    11.4220 Si            1 RES     
   10402 O           96.4470   145.4640     8.5700 O             1 RES     
   10403 O           53.8460   149.6770    12.4230 O             1 RES     
   10404 O           61.9350   126.3070    10.1220 O             1 RES     
   10405 O           84.7310   137.0780     7.2970 O             1 RES     
   10406 O           59.9940   132.7270     3.7510 O             1 RES     
   10407 OS          95.7050   112.9940    13.9360 OS            1 RES     
   10408 Si          68.4620   119.7870     7.3990 Si            1 RES     
   10409 O           61.2240   135.5340     6.4810 O             1 RES     
   10410 O           93.9110   110.6470     6.2750 O             1 RES     
   10411 O           95.5200   136.9650     7.4450 O             1 RES     
   10412 O           92.3600   147.1630     6.9220 O             1 RES     
   10413 OS          71.7830   113.9840    12.3470 OS            1 RES     
   10414 Si          88.2540   143.6100     8.9210 Si            1 RES     
   10415 O           67.5590   127.3140    12.9220 O             1 RES     
   10416 O           53.3950   111.3600    11.7150 O             1 RES     
   10417 Si          56.1610   104.5190     2.9570 Si            1 RES     
   10418 Si          85.9990   104.7990     5.4630 Si            1 RES     
   10419 O           90.4460   108.8940    11.2490 O             1 RES     
   10420 Si          86.3780   108.7640     9.1110 Si            1 RES     
   10421 Si          51.8180   127.6390    12.3530 Si            1 RES     
   10422 OS          97.8010   137.1470    12.8070 OS            1 RES     
   10423 OS          61.1920   145.1340    13.1630 OS            1 RES     
   10424 O           98.1120   147.4380    10.4120 O             1 RES     
   10425 O           89.5130   120.8610     8.2070 O             1 RES     
   10426 O           76.4280   134.1630    11.4740 O             1 RES     
   10427 Si          83.3770   103.5300     3.4640 Si            1 RES     
   10428 O           66.2090   128.5900     2.5190 O             1 RES     
   10429 O           86.1180   148.2970     8.6890 O             1 RES     
   10430 O           96.7490   117.9500     3.0500 O             1 RES     
   10431 O           91.6860   142.9810     6.6740 O             1 RES     
   10432 O           87.4760   112.5040     5.3120 O             1 RES     
   10433 Si          74.7900   113.2300     6.2040 Si            1 RES     
   10434 OS          88.1530   104.6200    13.3710 OS            1 RES     
   10435 O           59.6770   132.6350    11.3050 O             1 RES     
   10436 Si          83.9690   122.8690     3.4780 Si            1 RES     
   10437 O           93.9820   137.9620     9.3120 O             1 RES     
   10438 Si          62.2740   134.9140     7.4100 Si            1 RES     
   10439 O           75.0010   118.4920    11.1670 O             1 RES     
   10440 O           52.7600   124.2130    10.4020 O             1 RES     
   10441 O           92.9580   126.1660    11.8200 O             1 RES     
   10442 O           95.1440   114.4450    11.7480 O             1 RES     
   10443 Si          90.0110   139.8830     8.6920 Si            1 RES     
   10444 OS          54.8870   130.6080    12.7110 OS            1 RES     
   10445 O           86.7400   129.8300     5.2550 O             1 RES     
   10446 Si          66.6150   144.7830     8.8650 Si            1 RES     
   10447 O           64.1100   111.8590     9.6930 O             1 RES     
   10448 O           52.0850   144.1560     6.4310 O             1 RES     
   10449 OS          89.2760   149.2800    12.1610 OS            1 RES     
   10450 Si          89.0470   145.4520    11.2560 Si            1 RES     
   10451 Si          96.1120   142.6170    10.5030 Si            1 RES     
   10452 Si          65.9470   102.3680     7.5480 Si            1 RES     
   10453 O           59.2800   123.5000     7.5290 O             1 RES     
   10454 OS          90.7000   134.4120    12.2590 OS            1 RES     
   10455 O           87.3970   149.2820    10.3440 O             1 RES     
   10456 O           77.2990   109.9210     4.3170 O             1 RES     
   10457 O           97.5000   117.2100     9.6140 O             1 RES     
   10458 O           60.7770   140.0520     8.7900 O             1 RES     
   10459 Si          74.9320   124.8970     5.9010 Si            1 RES     
   10460 Si          96.2280   136.8130    12.7060 Si            1 RES     
   10461 OS          67.5710   107.1020    13.6460 OS            1 RES     
   10462 O           53.9580   131.7320     3.9260 O             1 RES     
   10463 O           80.0340   148.1820     5.4990 O             1 RES     
   10464 Si          52.3960   100.3410    12.1610 Si            1 RES     
   10465 Si          51.3740   124.8670    10.7920 Si            1 RES     
   10466 O           82.8560   114.0160     5.4360 O             1 RES     
   10467 O           55.0360   132.8140    11.2680 O             1 RES     
   10468 O           54.3950   101.0660     5.6080 O             1 RES     
   10469 Si          61.4700   114.6680     9.6650 Si            1 RES     
   10470 O           95.4260   112.4360     7.7160 O             1 RES     
   10471 Si          89.5160   133.9090    11.3150 Si            1 RES     
   10472 O           92.7260   145.9040    11.9400 O             1 RES     
   10473 OS          71.7830   105.7500    13.3060 OS            1 RES     
   10474 O           53.4140   140.7410     9.3500 O             1 RES     
   10475 O           84.3490   132.3610     3.7950 O             1 RES     
   10476 OS          54.0670   145.7170    13.0380 OS            1 RES     
   10477 O           66.5320   125.6030    11.2150 O             1 RES     
   10478 O           58.3430   140.2150     9.8420 O             1 RES     
   10479 O           54.0360   125.3720     8.7120 O             1 RES     
   10480 O           80.6800   145.8030     9.3590 O             1 RES     
   10481 O           60.0900   110.7120     6.1550 O             1 RES     
   10482 O           69.1940   117.1920     5.2050 O             1 RES     
   10483 O           87.1160   148.2080    12.3700 O             1 RES     
   10484 Si          61.3670   116.3290    12.1810 Si            1 RES     
   10485 O           85.5170   149.9290     1.5800 O             1 RES     
   10486 O           53.1960   113.4610     3.7560 O             1 RES     
   10487 O           54.0060   130.3250     6.5690 O             1 RES     
   10488 O           89.3020   100.3220     2.5230 O             1 RES     
   10489 Si          89.5480   134.3190     5.9030 Si            1 RES     
   10490 Si          69.5940   118.6870     4.7920 Si            1 RES     
   10491 OS          65.5400   111.8900    12.5810 OS            1 RES     
   10492 Si          53.2760   122.0430     6.8940 Si            1 RES     
   10493 O           54.7160   144.8320     2.2930 O             1 RES     
   10494 Si          66.4430   103.1290    10.4140 Si            1 RES     
   10495 O           84.7450   120.4650     6.8190 O             1 RES     
   10496 O           92.7410   149.4860     7.9210 O             1 RES     
   10497 O           59.6600   125.8890     8.2980 O             1 RES     
   10498 Si          64.1900   140.4600     5.9330 Si            1 RES     
   10499 O           52.1890   107.9920     5.7940 O             1 RES     
   10500 OS          58.7360   123.7110    12.1360 OS            1 RES     
   10501 O           59.6740   103.0890     7.3500 O             1 RES     
   10502 Si          95.4850   102.3080     9.1260 Si            1 RES     
   10503 O           84.5530   101.7420     7.1130 O             1 RES     
   10504 Si          97.6950   146.8240     4.1620 Si            1 RES     
   10505 O           59.0940   131.8780     9.0570 O             1 RES     
   10506 O           82.8540   111.6640    10.2560 O             1 RES     
   10507 O           89.9370   112.6720     5.1830 O             1 RES     
   10508 O           92.7870   107.5880     3.9020 O             1 RES     
   10509 OS          91.5110   144.6970    13.8950 OS            1 RES     
   10510 Si          53.5110   126.4870     7.6910 Si            1 RES     
   10511 Si          95.3360   148.4560     5.2530 Si            1 RES     
   10512 O           65.0890   116.2570    10.7830 O             1 RES     
   10513 O           51.7470   125.2300     4.6450 O             1 RES     
   10514 O           70.2430   149.6870    11.9420 O             1 RES     
   10515 Si          51.9550   142.6290     6.7790 Si            1 RES     
   10516 Si          71.5380   103.5220     7.4470 Si            1 RES     
   10517 O           67.2980   145.0130    10.2930 O             1 RES     
   10518 O           64.1450   139.2150     6.8920 O             1 RES     
   10519 O           60.4990   119.3050     7.6740 O             1 RES     
   10520 Si          64.9070   107.2060     6.9330 Si            1 RES     
   10521 Si          78.6810   125.7310     9.3460 Si            1 RES     
   10522 O           85.3300   130.3750     2.9760 O             1 RES     
   10523 Si          58.6830   143.2050     7.6990 Si            1 RES     
   10524 O           64.0870   129.7210     3.3030 O             1 RES     
   10525 O           83.0820   122.8120    10.2330 O             1 RES     
   10526 O           97.5190   136.2220     3.8790 O             1 RES     
   10527 Si          78.5250   106.5820    10.1990 Si            1 RES     
   10528 Si          97.4500   117.4220     4.3660 Si            1 RES     
   10529 O           78.1610   115.8470     6.3670 O             1 RES     
   10530 OS          51.1650   122.8170    14.2730 OS            1 RES     
   10531 O           94.8110   100.9100     8.5730 O             1 RES     
   10532 O           68.5750   127.3960     6.6910 O             1 RES     
   10533 O           76.1090   103.3020     3.9990 O             1 RES     
   10534 Si          92.6060   134.7230     9.4340 Si            1 RES     
   10535 Si          95.3720   110.9610     7.0310 Si            1 RES     
   10536 O           72.5860   129.5690     3.9380 O             1 RES     
   10537 Si          90.2970   131.3540     6.4800 Si            1 RES     
   10538 Si          56.0960   133.9830    10.8440 Si            1 RES     
   10539 O           62.7440   130.9830     8.8940 O             1 RES     
   10540 OS          96.1210   101.2430    12.8700 OS            1 RES     
   10541 O           76.2930   130.5420     3.2220 O             1 RES     
   10542 O           57.8820   124.5560     9.3200 O             1 RES     
   10543 O           77.0360   122.2950     8.3600 O             1 RES     
   10544 O           75.2950   100.7040    10.3780 O             1 RES     
   10545 Si          74.9280   117.5040     7.8380 Si            1 RES     
   10546 O           98.6180   104.1440    10.7340 O             1 RES     
   10547 O           75.6520   128.5460     7.8160 O             1 RES     
   10548 O           69.8470   124.9840     6.4890 O             1 RES     
   10549 Si          91.6370   112.8030    10.9200 Si            1 RES     
   10550 Si          85.3520   101.3890    12.1150 Si            1 RES     
   10551 Si          96.8970   137.7350     7.7620 Si            1 RES     
   10552 O           76.2440   107.4510     2.2640 O             1 RES     
   10553 O           55.3780   135.8640     6.8210 O             1 RES     
   10554 O           95.1740   127.8150     2.8680 O             1 RES     
   10555 Si          93.8770   127.3760    11.5510 Si            1 RES     
   10556 Si          62.5270   108.5340     8.2720 Si            1 RES     
   10557 O           53.5620   128.0480     7.7900 O             1 RES     
   10558 O           96.5290   122.0670     9.2400 O             1 RES     
   10559 Si          63.1480   115.3560     5.0550 Si            1 RES     
   10560 O           74.9450   129.7810    11.9010 O             1 RES     
   10561 O           50.0590   117.7840     9.3110 O             1 RES     
   10562 O           69.1170   113.8090     9.2550 O             1 RES     
   10563 O           54.0670   137.3420     4.9070 O             1 RES     
   10564 O           86.9140   110.2500     9.4460 O             1 RES     
   10565 O           85.5640   106.3480     5.5660 O             1 RES     
   10566 OS          79.1860   138.1350    12.6570 OS            1 RES     
   10567 Si          81.8730   137.3300     3.6020 Si            1 RES     
   10568 O           92.7740   103.8650     8.6890 O             1 RES     
   10569 O           86.2550   126.7060     8.7730 O             1 RES     
   10570 Si          64.0130   115.1700    11.1740 Si            1 RES     
   10571 OS          53.7870   116.7630    12.8830 OS            1 RES     
   10572 Si          98.5450   105.0490    12.0960 Si            1 RES     
   10573 O           90.6880   122.2130     4.0540 O             1 RES     
   10574 O           64.5790   132.1970     7.4600 O             1 RES     
   10575 O           90.8770   138.5600     8.8240 O             1 RES     
   10576 O           74.8340   143.0310     2.6420 O             1 RES     
   10577 Si          80.0510   119.2360     5.0320 Si            1 RES     
   10578 O           82.2550   108.4950     2.8570 O             1 RES     
   10579 O           95.1300   132.9420     1.8010 O             1 RES     
   10580 OS          73.0200   132.1490    12.2200 OS            1 RES     
   10581 Si          56.2410   143.4290     9.5200 Si            1 RES     
   10582 Si          76.1320   127.2990     4.2450 Si            1 RES     
   10583 O           89.7030   143.2250     8.3650 O             1 RES     
   10584 O           58.5980   146.3720     2.2240 O             1 RES     
   10585 Si          84.6490   103.1510     7.7220 Si            1 RES     
   10586 O           65.1550   111.3100     5.9300 O             1 RES     
   10587 Si          55.3720   110.0700     4.4590 Si            1 RES     
   10588 O           92.3490   107.4910    12.1660 O             1 RES     
   10589 OS          65.4210   140.4660    12.0290 OS            1 RES     
   10590 O           55.0060   104.4480     4.0530 O             1 RES     
   10591 O           69.4280   145.2850     5.8050 O             1 RES     
   10592 O           94.4440   146.5930    10.0370 O             1 RES     
   10593 O           99.3310   132.3570     9.5320 O             1 RES     
   10594 O           80.1120   126.0840     8.9200 O             1 RES     
   10595 O           60.4160   101.0990     2.8170 O             1 RES     
   10596 O           55.6430   134.8800     9.6260 O             1 RES     
   10597 O           60.6130   129.6900     9.5080 O             1 RES     
   10598 O           88.9430   130.5190     6.3560 O             1 RES     
   10599 O           60.5100   108.1880     5.4640 O             1 RES     
   10600 O           68.0080   149.7870    12.4920 O             1 RES     
   10601 O           79.9750   118.5390     6.4630 O             1 RES     
   10602 Si          93.5010   106.3350    12.2980 Si            1 RES     
   10603 O           81.0460   133.8030     5.5130 O             1 RES     
   10604 O           58.9270   111.8520    11.1040 O             1 RES     
   10605 O           72.6540   100.6510     6.3860 O             1 RES     
   10606 O           95.1230   132.2190     9.7350 O             1 RES     
   10607 O           65.4250   108.6330     6.4840 O             1 RES     
   10608 O           74.3040   133.2740     3.2250 O             1 RES     
   10609 O           99.8890   113.0660     8.7600 O             1 RES     
   10610 Si          58.1590   111.0630     5.8820 Si            1 RES     
   10611 Si          59.7230   106.6800    12.0750 Si            1 RES     
   10612 Si          78.4790   108.4120     7.7260 Si            1 RES     
   10613 Si          50.5120   107.5370    12.0020 Si            1 RES     
   10614 O           59.6710   105.6550     4.5980 O             1 RES     
   10615 O           50.6430   146.6160     2.2410 O             1 RES     
   10616 O           97.4550   113.8010     8.3070 O             1 RES     
   10617 O           68.8750   125.6890    11.5620 O             1 RES     
   10618 Si          59.6420   129.2860     3.6580 Si            1 RES     
   10619 O           56.7420   127.7270     7.4510 O             1 RES     
   10620 Si          57.3690   111.2960    10.8940 Si            1 RES     
   10621 Si          80.6730   132.5360     9.5370 Si            1 RES     
   10622 O           62.3410   133.3180     7.6750 O             1 RES     
   10623 Si          55.5320   136.0130     8.4250 Si            1 RES     
   10624 Si          73.0290   143.0570    11.1760 Si            1 RES     
   10625 Si          90.9590   108.1710     7.5530 Si            1 RES     
   10626 OS          69.6480   148.2890    13.7740 OS            1 RES     
   10627 O           84.4150   122.6970     5.0520 O             1 RES     
   10628 O           71.5930   103.0260     9.0560 O             1 RES     
   10629 Si          85.2580   114.0110    11.5060 Si            1 RES     
   10630 O           65.8700   132.0780     9.6110 O             1 RES     
   10631 O           77.1660   118.1990     2.9840 O             1 RES     
   10632 O           52.9420   129.6550     4.5650 O             1 RES     
   10633 Si          91.6730   143.7280     5.2710 Si            1 RES     
   10634 O           89.1920   100.5770     7.9150 O             1 RES     
   10635 O           62.7510   119.8360     9.1320 O             1 RES     
   10636 O           71.9460   142.2760    10.3200 O             1 RES     
   10637 O           64.1980   138.2730     2.9000 O             1 RES     
   10638 O           79.3360   132.1020     8.8840 O             1 RES     
   10639 O           99.7930   110.4860     8.6050 O             1 RES     
   10640 O           76.2920   112.6820     9.6340 O             1 RES     
   10641 O           59.8200   125.0990    10.5220 O             1 RES     
   10642 Si          77.4390   119.6000     3.5680 Si            1 RES     
   10643 O           56.6230   114.8530     6.6910 O             1 RES     
   10644 O           58.6230   149.0540    10.4420 O             1 RES     
   10645 O           94.8180   126.8060    10.4470 O             1 RES     
   10646 O           61.7380   109.5000     1.6330 O             1 RES     
   10647 O           97.2400   146.8150     2.7000 O             1 RES     
   10648 O           84.5170   124.8560     9.2050 O             1 RES     
   10649 O           70.2360   109.1000    10.6340 O             1 RES     
   10650 O           82.3420   121.8730    12.6260 O             1 RES     
   10651 Si          75.7150   141.7100     2.8710 Si            1 RES     
   10652 O           84.9960   119.4610     9.2060 O             1 RES     
   10653 Si          91.4990   119.5180    11.1150 Si            1 RES     
   10654 Si          65.2730   110.2900    12.5260 Si            1 RES     
   10655 O           86.2120   118.2560     7.4380 O             1 RES     
   10656 O           79.3970   136.5730     9.2700 O             1 RES     
   10657 O           55.0300   123.2810    10.2570 O             1 RES     
   10658 Si          50.3920   142.2210     4.1890 Si            1 RES     
   10659 O           52.2260   126.4020     2.4270 O             1 RES     
   10660 O           99.4230   118.8260    12.6940 O             1 RES     
   10661 O           77.1160   127.9850     5.1480 O             1 RES     
   10662 Si          58.2650   140.9430     4.4180 Si            1 RES     
   10663 O           91.1300   122.0980     6.6650 O             1 RES     
   10664 O           95.5570   131.9600     4.3400 O             1 RES     
   10665 O           50.1660   119.6860     6.1490 O             1 RES     
   10666 Si          83.2720   108.2920    11.3850 Si            1 RES     
   10667 O           72.7000   100.6170     4.0170 O             1 RES     
   10668 O           63.0960   147.7250     5.9260 O             1 RES     
   10669 Si          72.7790   101.7000     2.8520 Si            1 RES     
   10670 O           66.3630   113.3470     5.6630 O             1 RES     
   10671 O           80.9870   148.2450    10.0420 O             1 RES     
   10672 O           87.2390   149.7590     3.5030 O             1 RES     
   10673 Si          80.8900   116.7310     3.3720 Si            1 RES     
   10674 O           76.4990   144.3450     9.2110 O             1 RES     
   10675 O           99.2220   126.2600     7.9750 O             1 RES     
   10676 O           83.9070   131.6450     7.3760 O             1 RES     
   10677 O           93.4510   115.8270    10.1300 O             1 RES     
   10678 Si          96.0430   125.0580     5.6030 Si            1 RES     
   10679 O           51.8810   126.1950     7.7000 O             1 RES     
   10680 O           67.3560   102.2180    11.3970 O             1 RES     
   10681 O           57.1550   117.3080     4.0380 O             1 RES     
   10682 Si          92.4350   110.2010     5.9260 Si            1 RES     
   10683 Si          90.6900   103.0210    11.3890 Si            1 RES     
   10684 O           69.3480   100.7980     2.3270 O             1 RES     
   10685 O           69.9280   129.8800    10.9250 O             1 RES     
   10686 O           69.4570   120.9430     7.8900 O             1 RES     
   10687 O           60.7040   113.2600     9.7220 O             1 RES     
   10688 Si          50.4770   101.6020     5.9420 Si            1 RES     
   10689 O           59.4100   101.3120    10.7100 O             1 RES     
   10690 Si          68.7360   117.6360     9.5480 Si            1 RES     
   10691 O           55.7520   147.8330    12.9800 O             1 RES     
   10692 O           69.8340   107.1440     8.9810 O             1 RES     
   10693 Si          68.1230   108.5540     3.6600 Si            1 RES     
   10694 Si          58.9940   133.1040    10.0430 Si            1 RES     
   10695 O           85.6350   137.2760     4.9160 O             1 RES     
   10696 O           93.9320   130.7370     6.0400 O             1 RES     
   10697 Si          60.3410   136.8300     3.1460 Si            1 RES     
   10698 O           80.0060   134.1070    13.8750 O             1 RES     
   10699 OS          83.7480   133.1240    13.3250 OS            1 RES     
   10700 Si          57.3310   143.7630     4.9050 Si            1 RES     
   10701 O           62.4480   123.4040     3.5910 O             1 RES     
   10702 Si          61.1820   120.0760     8.8680 Si            1 RES     
   10703 O           82.3270   136.7830     2.1510 O             1 RES     
   10704 Si          76.8970   132.7770    12.0530 Si            1 RES     
   10705 O           81.1770   138.7570     3.8720 O             1 RES     
   10706 O           92.7610   136.9040     6.8720 O             1 RES     
   10707 O           50.1790   145.8030    11.0080 O             1 RES     
   10708 O           64.9690   139.8680     4.7060 O             1 RES     
   10709 O           59.7750   130.5060     2.5650 O             1 RES     
   10710 Si          76.2080   135.7160    11.4330 Si            1 RES     
   10711 O           83.8200   101.8110    12.2470 O             1 RES     
   10712 O           82.2410   124.6310     8.4590 O             1 RES     
   10713 O           94.9250   106.9980    12.2900 O             1 RES     
   10714 Si          60.0470   106.9750     9.0140 Si            1 RES     
   10715 O           54.9290   113.9990     8.3470 O             1 RES     
   10716 Si          73.0970   134.0080     6.9800 Si            1 RES     
   10717 O           85.3680   149.2480     6.6070 O             1 RES     
   10718 O           88.6330   103.1870     8.2330 O             1 RES     
   10719 O           59.6790   138.1050     2.4130 O             1 RES     
   10720 O           74.3640   125.9410     9.8980 O             1 RES     
   10721 Si          51.3860   104.4330     6.3760 Si            1 RES     
   10722 O           86.0720   125.4030    10.9870 O             1 RES     
   10723 Si          83.3970   100.4560     4.1020 Si            1 RES     
   10724 O           97.7770   145.4010     4.5940 O             1 RES     
   10725 O           99.6460   100.9140     7.0600 O             1 RES     
   10726 Si          99.7490   142.7510     8.8430 Si            1 RES     
   10727 O           97.7090   120.8010    12.2820 O             1 RES     
   10728 O           71.0710   105.0660     7.7670 O             1 RES     
   10729 Si          67.6200   108.2770    12.5210 Si            1 RES     
   10730 O           73.8990   108.0890     8.4830 O             1 RES     
   10731 O           94.9940   106.8110     5.0230 O             1 RES     
   10732 O           88.3840   127.7090     9.6910 O             1 RES     
   10733 Si          52.3000   149.5910     9.1770 Si            1 RES     
   10734 O           61.0760   117.9080    12.0650 O             1 RES     
   10735 Si          52.4870   145.5200     5.7490 Si            1 RES     
   10736 O           67.3130   117.3870    10.0950 O             1 RES     
   10737 O           88.8030   118.8680     3.1010 O             1 RES     
   10738 O           56.2230   105.3790     1.6200 O             1 RES     
   10739 O           83.8930   137.3990    11.2720 O             1 RES     
   10740 OS          85.5880   137.9490    13.8270 OS            1 RES     
   10741 OS          55.7350   122.1460    12.4840 OS            1 RES     
   10742 Si          80.0550   120.4620     9.8690 Si            1 RES     
   10743 O           56.6910   121.9270     4.9560 O             1 RES     
   10744 O           67.7340   121.6430     3.5230 O             1 RES     
   10745 O           69.7000   145.8050    10.1940 O             1 RES     
   10746 O           71.0350   110.2870     8.9720 O             1 RES     
   10747 Si          50.3040   111.6260     9.5100 Si            1 RES     
   10748 Si          97.8920   139.8850     5.9730 Si            1 RES     
   10749 Si          75.8660   144.0270    10.5700 Si            1 RES     
   10750 O           53.1940   100.0020     7.9500 O             1 RES     
   10751 O           83.6470   134.4260     4.8550 O             1 RES     
   10752 Si          80.7270   142.4020     8.4770 Si            1 RES     
   10753 Si          84.7700   137.8690     3.8180 Si            1 RES     
   10754 O           50.9940   110.8450     2.6310 O             1 RES     
   10755 O           79.2810   120.1280    11.1720 O             1 RES     
   10756 O           65.4150   107.7660     1.5950 O             1 RES     
   10757 O           68.3850   135.8390     4.7270 O             1 RES     
   10758 Si          95.2900   125.8680     9.3100 Si            1 RES     
   10759 Si          92.5050   122.3130    10.4510 Si            1 RES     
   10760 Si          65.7320   129.5360     3.7050 Si            1 RES     
   10761 Si          59.6690   147.8430     5.4930 Si            1 RES     
   10762 O           62.3740   148.9220     8.1810 O             1 RES     
   10763 O           74.6360   100.9360     7.9300 O             1 RES     
   10764 O           69.8080   103.0050     3.2320 O             1 RES     
   10765 O           85.4430   100.0010    12.9260 O             1 RES     
   10766 O           56.8130   127.9240     9.9120 O             1 RES     
   10767 O           86.6000   138.8690     6.7020 O             1 RES     
   10768 Si          60.1060   119.0830    11.7060 Si            1 RES     
   10769 O           69.5560   115.3870     7.1320 O             1 RES     
   10770 O           63.4780   147.4240     3.3610 O             1 RES     
   10771 OS          83.1620   111.7520    13.1050 OS            1 RES     
   10772 O           60.6930   126.6800     1.2410 O             1 RES     
   10773 O           72.8730   122.8310    11.1670 O             1 RES     
   10774 O           61.8470   121.1590     4.2940 O             1 RES     
   10775 Si          71.9760   112.3940    12.3550 Si            1 RES     
   10776 O           62.8560   109.6200     9.3420 O             1 RES     
   10777 Si          65.5080   138.7700     3.6850 Si            1 RES     
   10778 O           87.2780   142.6790     9.7680 O             1 RES     
   10779 O           58.5470   110.3990     4.4330 O             1 RES     
   10780 O           54.3780   146.6300     8.9120 O             1 RES     
   10781 O           79.9050   145.6210     6.1860 O             1 RES     
   10782 Si          83.6080   114.0500     6.7690 Si            1 RES     
   10783 O           56.9040   114.7780     2.4800 O             1 RES     
   10784 O           67.7290   146.9900     5.8550 O             1 RES     
   10785 O           63.0630   102.0570     5.8520 O             1 RES     
   10786 O           64.9550   120.6690     8.2220 O             1 RES     
   10787 O           76.1070   141.4050     4.3750 O             1 RES     
   10788 O           76.7350   126.8440     2.9100 O             1 RES     
   10789 O           80.0560   102.9350     5.7890 O             1 RES     
   10790 O           95.2980   121.2120     4.8160 O             1 RES     
   10791 O           59.9770   110.8910     9.1250 O             1 RES     
   10792 Si          65.7720   132.3240    11.1840 Si            1 RES     
   10793 O           75.9570   132.4380     4.9530 O             1 RES     
   10794 O           99.6260   138.0500     4.0950 O             1 RES     
   10795 Si          77.7560   122.5190     3.0090 Si            1 RES     
   10796 O           56.1310   118.0340    12.6980 O             1 RES     
   10797 Si          79.6580   112.5070     4.9570 Si            1 RES     
   10798 Si          70.6900   103.4160     4.4270 Si            1 RES     
   10799 O           68.0140   137.6140     6.4480 O             1 RES     
   10800 Si          57.4400   149.6480     6.7860 Si            1 RES     
   10801 O           61.4600   142.1930     3.2080 O             1 RES     
   10802 O           57.4840   142.2850     4.2520 O             1 RES     
   10803 O           70.4090   141.3470     8.5420 O             1 RES     
   10804 O           77.7690   115.8050     3.7780 O             1 RES     
   10805 O           70.8050   122.5490     6.6200 O             1 RES     
   10806 O           97.1940   109.1690     3.9050 O             1 RES     
   10807 O           93.1990   132.2580    11.8910 O             1 RES     
   10808 OS          52.5250   101.7930    12.7490 OS            1 RES     
   10809 O           65.8720   131.1240     3.5680 O             1 RES     
   10810 OS          86.9670   123.0980    12.0190 OS            1 RES     
   10811 O           74.6860   105.7720     8.6550 O             1 RES     
   10812 Si          53.3320   117.0320     2.8190 Si            1 RES     
   10813 O           96.1960   119.5610     9.2260 O             1 RES     
   10814 O           54.2990   111.6510     9.3740 O             1 RES     
   10815 Si          93.9040   120.4480     4.8120 Si            1 RES     
   10816 O           74.8680   135.8760    12.2940 O             1 RES     
   10817 O           73.6580   118.9010     3.6840 O             1 RES     
   10818 Si          64.1220   137.2970    12.4430 Si            1 RES     
   10819 Si          98.3240   103.2150     9.4960 Si            1 RES     
   10820 O           58.7600   145.0380    12.2370 O             1 RES     
   10821 Si          85.3480   134.2110     9.5120 Si            1 RES     
   10822 Si          97.0210   100.0510    12.4420 Si            1 RES     
   10823 O           69.9310   133.8980     5.2210 O             1 RES     
   10824 O           57.6010   134.5360     2.5650 O             1 RES     
   10825 O           65.1770   144.2300     2.7320 O             1 RES     
   10826 O           91.9330   137.9030     4.7360 O             1 RES     
   10827 Si          56.2890   117.4690     9.5750 Si            1 RES     
   10828 OS          75.4360   111.1810    11.7760 OS            1 RES     
   10829 O           60.2860   101.4390     5.2360 O             1 RES     
   10830 O           73.4720   143.8750     7.4750 O             1 RES     
   10831 O           56.0160   144.9060     9.1190 O             1 RES     
   10832 Si          62.5860   109.9290     3.0050 Si            1 RES     
   10833 O           52.3750   115.4810     5.2860 O             1 RES     
   10834 Si          55.0570   113.0090     9.6470 Si            1 RES     
   10835 O           68.5420   105.3050     7.9260 O             1 RES     
   10836 O           98.6410   143.7890     8.4790 O             1 RES     
   10837 O           61.8310   130.9040    11.1600 O             1 RES     
   10838 O           85.0670   113.4710     6.3520 O             1 RES     
   10839 Si          92.0050   138.9920     3.5840 Si            1 RES     
   10840 O           58.0640   140.0100     3.0870 O             1 RES     
   10841 Si          78.7100   137.9400     8.8920 Si            1 RES     
   10842 Si          51.4570   107.3840     7.0950 Si            1 RES     
   10843 O           69.5950   131.6930     6.4870 O             1 RES     
   10844 Si          70.2910   110.6330    10.3250 Si            1 RES     
   10845 O           99.4830   109.5720     4.3120 O             1 RES     
   10846 Si          99.2360   130.9390    10.2300 Si            1 RES     
   10847 O           79.8460   141.2250     8.0550 O             1 RES     
   10848 Si          69.0220   125.9820     7.4110 Si            1 RES     
   10849 O           73.4690   113.3370     9.5400 O             1 RES     
   10850 Si          73.9240   124.9980     8.7160 Si            1 RES     
   10851 OS          83.2710   137.9530    13.2690 OS            1 RES     
   10852 O           75.8540   125.8150     5.0220 O             1 RES     
   10853 O           90.4720   131.4740     8.0220 O             1 RES     
   10854 Si          99.0790   109.2880     7.9830 Si            1 RES     
   10855 OS          56.2560   106.2770    13.5190 OS            1 RES     
   10856 Si          84.2060   140.7980     4.4520 Si            1 RES     
   10857 O           88.6100   137.7160     3.1690 O             1 RES     
   10858 Si          57.0770   120.2490     8.8390 Si            1 RES     
   10859 Si          98.9090   146.5840    11.4290 Si            1 RES     
   10860 O           88.3370   126.5730     2.7100 O             1 RES     
   10861 Si          84.5520   109.9310     7.0270 Si            1 RES     
   10862 Si          70.0360   131.2220    10.1190 Si            1 RES     
   10863 O           52.8930   122.2920     2.5400 O             1 RES     
   10864 Si          77.6670   116.0710     7.8400 Si            1 RES     
   10865 O           78.8060   113.8260     5.0430 O             1 RES     
   10866 Si          74.8180   112.7050    10.9700 Si            1 RES     
   10867 Si          98.9160   133.1910     8.2340 Si            1 RES     
   10868 Si          69.3220   138.0950    12.5930 Si            1 RES     
   10869 Si          51.9380   135.8990    11.6940 Si            1 RES     
   10870 O           95.7460   137.2740    11.2740 O             1 RES     
   10871 OS          59.6630   130.5690    12.2770 OS            1 RES     
   10872 Si          69.9030   114.9890     8.5670 Si            1 RES     
   10873 O           75.7710   104.4830     6.4720 O             1 RES     
   10874 O           98.9850   132.2290     4.6010 O             1 RES     
   10875 Si          87.7750   139.8480     6.4840 Si            1 RES     
   10876 O           58.1810   101.0180     6.6000 O             1 RES     
   10877 O           57.9860   109.8280     2.0970 O             1 RES     
   10878 Si          79.5330   133.3360     5.4390 Si            1 RES     
   10879 O           96.2350   123.4670     5.7550 O             1 RES     
   10880 Si          67.2150   128.3100     6.4770 Si            1 RES     
   10881 O           73.2530   107.7300     5.9480 O             1 RES     
   10882 O           70.2230   141.7250     6.0320 O             1 RES     
   10883 Si          64.1060   102.9270    12.3560 Si            1 RES     
   10884 O           69.4250   126.0820     8.9530 O             1 RES     
   10885 Si          57.2080   148.9900     9.7760 Si            1 RES     
   10886 O           63.0180   137.7460    13.3970 O             1 RES     
   10887 Si          99.0280   116.6680     9.7360 Si            1 RES     
   10888 O           88.7140   139.7180     7.7470 O             1 RES     
   10889 Si          80.7840   146.8420     5.9520 Si            1 RES     
   10890 O           60.4830   129.8580     4.8470 O             1 RES     
   10891 Si          68.2410   112.9120    10.1490 Si            1 RES     
   10892 O           60.7840   143.1810    10.3760 O             1 RES     
   10893 O           92.2450   142.8690     9.2390 O             1 RES     
   10894 Si          78.5000   122.7930     8.3570 Si            1 RES     
   10895 O           54.2370   121.0310    10.8790 O             1 RES     
   10896 O           81.8450   108.4730    11.9550 O             1 RES     
   10897 O           94.0220   122.2570     9.9290 O             1 RES     
   10898 Si          89.1410   149.3650     6.8780 Si            1 RES     
   10899 OS          60.8590   115.6080    13.4570 OS            1 RES     
   10900 Si          55.3790   100.2450     4.5480 Si            1 RES     
   10901 O           58.0870   110.3600     7.2540 O             1 RES     
   10902 O           79.9120   143.3700     9.5960 O             1 RES     
   10903 Si          93.3470   117.3420     9.7490 Si            1 RES     
   10904 O           71.2180   138.5560     4.1250 O             1 RES     
   10905 Si          96.2780   118.2610    10.0530 Si            1 RES     
   10906 O           69.3690   139.5920     7.2420 O             1 RES     
   10907 O           97.3990   113.5140     4.6950 O             1 RES     
   10908 Si          79.8150   133.5000    12.2720 Si            1 RES     
   10909 O           79.7090   104.6080     3.9520 O             1 RES     
   10910 O           74.4790   106.5760     3.9720 O             1 RES     
   10911 Si          95.4830   100.4720     2.9760 Si            1 RES     
   10912 O           92.9600   121.7040     4.9030 O             1 RES     
   10913 O           61.2310   119.0010     2.7990 O             1 RES     
   10914 Si          80.8700   108.1510     3.5780 Si            1 RES     
   10915 Si          60.7240   144.5390     9.5680 Si            1 RES     
   10916 O           94.5910   103.2770    10.0920 O             1 RES     
   10917 OS          90.6880   112.9890    12.1640 OS            1 RES     
   10918 O           73.7620   134.0750     5.5450 O             1 RES     
   10919 O           78.5770   119.4320     4.6810 O             1 RES     
   10920 Si          98.8450   132.4750     3.0400 Si            1 RES     
   10921 O           52.2640   128.7650    11.3580 O             1 RES     
   10922 O           58.7090   118.4050    12.0580 O             1 RES     
   10923 Si          86.6600   129.8290     3.7120 Si            1 RES     
   10924 O           74.6190   121.3980     7.7070 O             1 RES     
   10925 Si          89.7760   127.3710    10.4760 Si            1 RES     
   10926 OS          98.4250   130.9370    11.5870 OS            1 RES     
   10927 O           86.1050   103.2680     8.2910 O             1 RES     
   10928 O           62.4430   101.3040     8.2790 O             1 RES     
   10929 Si          83.4360   116.4340    10.8380 Si            1 RES     
   10930 Si          80.7530   104.1730     5.0870 Si            1 RES     
   10931 O           56.1070   138.0600     5.8620 O             1 RES     
   10932 O           88.6680   136.4770     8.9480 O             1 RES     
   10933 Si          61.1630   109.6020     5.7720 Si            1 RES     
   10934 Si          90.3730   114.4940     8.7190 Si            1 RES     
   10935 O           99.6810   132.3530     7.0340 O             1 RES     
   10936 OS          64.2170   122.5440    13.1760 OS            1 RES     
   10937 O           83.6960   115.5260     7.1440 O             1 RES     
   10938 O           84.6540   149.6130     3.8450 O             1 RES     
   10939 O           50.6790   130.3410     5.3820 O             1 RES     
   10940 Si          69.0850   148.6460    12.2470 Si            1 RES     
   10941 Si          72.1510   102.9900    10.5480 Si            1 RES     
   10942 O           84.7300   136.8210     2.4400 O             1 RES     
   10943 O           52.4910   118.3390     2.9200 O             1 RES     
   10944 Si          96.3210   141.5570     3.9180 Si            1 RES     
   10945 O           70.6750   135.7400     9.5880 O             1 RES     
   10946 O           94.1660   126.3470     8.2340 O             1 RES     
   10947 Si          50.5010   125.4290     7.9210 Si            1 RES     
   10948 O           75.2210   139.4880     5.9300 O             1 RES     
   10949 OS          96.3090   135.2350    12.6710 OS            1 RES     
   10950 O           69.1550   107.3510     3.9290 O             1 RES     
   10951 O           74.3180   125.4750     7.2570 O             1 RES     
   10952 O           94.5330   142.4470    10.6150 O             1 RES     
   10953 O           82.8890   137.2560     8.9580 O             1 RES     
   10954 OS          51.4300   107.6250    13.2710 OS            1 RES     
   10955 Si          60.0770   118.5520     6.3800 Si            1 RES     
   10956 Si          65.4110   112.2030     8.9330 Si            1 RES     
   10957 Si          73.5250   122.0570    12.3530 Si            1 RES     
   10958 O           82.6580   129.0700    10.7970 O             1 RES     
   10959 O           68.9780   111.5120    10.0640 O             1 RES     
   10960 OS          75.6930   119.3670    13.4870 OS            1 RES     
   10961 O           92.1530   109.8200     4.4030 O             1 RES     
   10962 OS          81.5440   117.1520    13.7880 OS            1 RES     
   10963 O           68.3820   107.7760    11.1990 O             1 RES     
   10964 Si          69.9120   125.9010    10.4390 Si            1 RES     
   10965 Si          71.2670   139.6860     3.0300 Si            1 RES     
   10966 O           60.3610   144.5950     2.8460 O             1 RES     
   10967 O           69.7400   145.9700     3.4200 O             1 RES     
   10968 Si          68.8430   110.6020     5.8770 Si            1 RES     
   10969 O           61.3070   124.0840     8.6510 O             1 RES     
   10970 OS          71.1670   101.4560    13.9310 OS            1 RES     
   10971 O           58.0970   129.2030     4.1690 O             1 RES     
   10972 O           83.8360   110.8010     2.9710 O             1 RES     
   10973 O           51.1100   120.6060     3.1090 O             1 RES     
   10974 Si          96.7980   120.7630     8.3390 Si            1 RES     
   10975 O           62.9400   138.4750     8.8170 O             1 RES     
   10976 Si          79.6600   144.8580    10.0510 Si            1 RES     
   10977 O           61.2120   115.4640     8.3510 O             1 RES     
   10978 Si          89.6190   102.0610     8.6460 Si            1 RES     
   10979 O           69.3910   139.6610    12.7410 O             1 RES     
   10980 O           97.5620   107.4470     5.5700 O             1 RES     
   10981 Si          89.2700   136.7440    10.3940 Si            1 RES     
   10982 O           93.0340   118.0030     8.3440 O             1 RES     
   10983 Si          81.7660   106.8110     9.2550 Si            1 RES     
   10984 O           52.4310   120.7180     6.6690 O             1 RES     
   10985 Si          91.7730   144.6900    12.3280 Si            1 RES     
   10986 O           78.3720   133.8490     7.0030 O             1 RES     
   10987 OS          62.9090   127.3060    12.5350 OS            1 RES     
   10988 Si          54.1990   105.0560    10.8450 Si            1 RES     
   10989 O           89.9540   105.4880     5.1340 O             1 RES     
   10990 Si          52.1290   114.5270     4.0690 Si            1 RES     
   10991 Si          73.8080   108.7590     7.0580 Si            1 RES     
   10992 O           65.0930   100.7780     4.4410 O             1 RES     
   10993 O           84.8950   104.1750     6.5650 O             1 RES     
   10994 OS          84.3920   129.4680    12.5620 OS            1 RES     
   10995 O           53.3300   122.7720     8.3380 O             1 RES     
   10996 O           68.1330   109.5050     2.4330 O             1 RES     
   10997 O           62.2920   144.5360     9.1110 O             1 RES     
   10998 O           56.9350   120.8710     7.3810 O             1 RES     
   10999 Si          58.2440   137.4110     8.3920 Si            1 RES     
   11000 OS          75.8330   115.4440    13.8280 OS            1 RES     
   11001 Si          63.5490   134.3190    11.9030 Si            1 RES     
   11002 Si          69.7110   107.5830    10.4450 Si            1 RES     
   11003 Si          78.6080   115.3720     4.9640 Si            1 RES     
   11004 O           89.9930   104.1720     3.0720 O             1 RES     
   11005 Si          75.0340   132.0940     8.5620 Si            1 RES     
   11006 O           93.6290   133.2150     5.0040 O             1 RES     
   11007 Si          61.3430   141.5240     4.6710 Si            1 RES     
   11008 Si          77.0130   113.1390     8.3330 Si            1 RES     
   11009 Si          98.9600   113.6160     4.9470 Si            1 RES     
   11010 O           76.9220   129.1920     9.9540 O             1 RES     
   11011 Si          56.3490   126.5680     6.4490 Si            1 RES     
   11012 O           76.2180   103.1580    10.9840 O             1 RES     
   11013 O           83.2120   116.3800     9.3320 O             1 RES     
   11014 OS          56.4260   134.7250    12.1420 OS            1 RES     
   11015 O           69.1830   148.4110     2.8480 O             1 RES     
   11016 Si          52.8540   146.5740     8.6460 Si            1 RES     
   11017 O           90.5630   135.5950     5.7950 O             1 RES     
   11018 O           83.2630   110.6490     7.6910 O             1 RES     
   11019 O           94.8170   149.4930     6.4370 O             1 RES     
   11020 O           65.8050   100.2400    11.7960 O             1 RES     
   11021 Si          79.1690   140.2680     6.9740 Si            1 RES     
   11022 O           74.2300   132.0940     9.9360 O             1 RES     
   11023 OS          86.0060   114.0500    12.9430 OS            1 RES     
   11024 Si          54.1400   131.8930    12.2360 Si            1 RES     
   11025 O           63.9600   135.7890    11.8600 O             1 RES     
   11026 O           60.1560   117.0980     6.7790 O             1 RES     
   11027 O           81.4100   138.4720    11.0010 O             1 RES     
   11028 O           66.3110   109.1870    12.1930 O             1 RES     
   11029 O           99.7160   106.1130    11.9960 O             1 RES     
   11030 Si          96.2190   106.7850     6.0930 Si            1 RES     
   11031 O           99.4500   108.6740    12.1600 O             1 RES     
   11032 O           50.5590   124.8310     9.4250 O             1 RES     
   11033 O           81.0190   112.8100     4.2520 O             1 RES     
   11034 O           92.5120   113.8110     3.3200 O             1 RES     
   11035 O           94.9820   135.0040     3.9540 O             1 RES     
   11036 Si          97.8900   140.3320     9.3920 Si            1 RES     
   11037 OS          90.7650   119.2600    12.4870 OS            1 RES     
   11038 O           99.3310   134.6780     8.0710 O             1 RES     
   11039 O           53.8620   116.9500     1.4150 O             1 RES     
   11040 O           56.5610   109.2230     3.8240 O             1 RES     
   11041 O           84.6850   112.5290    11.3780 O             1 RES     
   11042 Si          74.1050   139.4900    10.4800 Si            1 RES     
   11043 O           83.2570   100.2650     5.6660 O             1 RES     
   11044 O           72.7900   109.8900     7.1890 O             1 RES     
   11045 O           82.6950   135.6060     6.7950 O             1 RES     
   11046 OS          55.9340   128.2390    12.2320 OS            1 RES     
   11047 O           79.9530   115.9870     4.5410 O             1 RES     
   11048 Si          95.8740   113.8780     8.0790 Si            1 RES     
   11049 O           93.1760   124.2670    13.5710 O             1 RES     
   11050 O           84.1640   117.8210    10.9570 O             1 RES     
   11051 Si          99.1160   120.2060    11.9690 Si            1 RES     
   11052 O           65.7400   110.8380     8.1330 O             1 RES     
   11053 Si          55.7440   146.3750     9.5310 Si            1 RES     
   11054 O           88.2740   124.3050    10.1730 O             1 RES     
   11055 O           93.1520   101.7600     6.8610 O             1 RES     
   11056 O           74.4440   116.8930     9.2070 O             1 RES     
   11057 Si          97.1230   144.1060     8.0430 Si            1 RES     
   11058 Si          82.3110   113.8020     4.0170 Si            1 RES     
   11059 O           77.0840   100.2090     8.7460 O             1 RES     
   11060 Si          92.5260   124.7440    12.2770 Si            1 RES     
   11061 O           98.5480   109.5350     6.5140 O             1 RES     
   11062 O           82.0830   105.2400     9.5810 O             1 RES     
   11063 Si          80.7770   106.9750     6.3810 Si            1 RES     
   11064 O           82.6560   117.3460     3.5770 O             1 RES     
   11065 Si          72.9830   146.9500     5.2330 Si            1 RES     
   11066 Si          60.7820   122.8880     7.5800 Si            1 RES     
   11067 O           87.9150   135.4680     2.4360 O             1 RES     
   11068 Si          78.5620   110.2560     3.2980 Si            1 RES     
   11069 O           89.5970   108.4610     6.8880 O             1 RES     
   11070 O           78.0860   127.0470    12.8440 O             1 RES     
   11071 Si          62.4540   100.0520     9.2110 Si            1 RES     
   11072 O           75.1730   109.3400     6.4250 O             1 RES     
   11073 O           83.3330   144.0330    10.0310 O             1 RES     
   11074 O           91.8390   124.0760     5.2260 O             1 RES     
   11075 Si          87.3600   117.2670     7.9960 Si            1 RES     
   11076 Si          78.2610   128.7300     5.8670 Si            1 RES     
   11077 Si          80.2820   108.1480    12.0040 Si            1 RES     
   11078 O           53.8730   102.3210     7.7110 O             1 RES     
   11079 OS          59.8770   149.4910    12.5530 OS            1 RES     
   11080 O           64.0220   110.2330    11.5570 O             1 RES     
   11081 Si          72.5800   113.5060     8.3100 Si            1 RES     
   11082 O           99.1180   101.8730     9.3660 O             1 RES     
   11083 Si          98.9490   114.0960     8.0240 Si            1 RES     
   11084 Si          96.8790   103.8960     6.8860 Si            1 RES     
   11085 O           85.4650   132.8620     6.0240 O             1 RES     
   11086 O           77.1510   137.9040     8.7450 O             1 RES     
   11087 Si          67.7620   123.1290     3.9820 Si            1 RES     
   11088 O           76.4320   117.0710     7.9550 O             1 RES     
   11089 OS          73.7870   128.9780    13.9750 OS            1 RES     
   11090 O           64.9030   122.0870     6.1110 O             1 RES     
   11091 O           66.5420   143.3890     8.1150 O             1 RES     
   11092 O           50.9190   122.9880     4.2150 O             1 RES     
   11093 Si          67.7200   113.2740     4.9340 Si            1 RES     
   11094 O           55.1420   142.4580     8.9610 O             1 RES     
   11095 O           84.5830   108.8080     5.8920 O             1 RES     
   11096 O           77.9120   144.4110     6.9660 O             1 RES     
   11097 Si          98.7060   112.1020    12.1750 Si            1 RES     
   11098 OS          68.3710   113.4360    11.6530 OS            1 RES     
   11099 O           90.0080   104.3710    11.6840 O             1 RES     
   11100 O           68.3840   114.6960     5.1130 O             1 RES     
   11101 O           55.2630   146.3220    11.0400 O             1 RES     
   11102 O           97.8390   121.1070     5.3680 O             1 RES     
   11103 Si          76.3970   115.0080    12.4620 Si            1 RES     
   11104 O           92.3170   126.3140     6.2530 O             1 RES     
   11105 O           75.3350   107.2390    10.7060 O             1 RES     
   11106 Si          81.4810   126.0880     8.1040 Si            1 RES     
   11107 O           99.2420   136.2610     5.9950 O             1 RES     
   11108 O           96.9280   102.4810     9.7930 O             1 RES     
   11109 O           86.5390   130.8970     7.4160 O             1 RES     
   11110 O           82.5680   121.7720     6.0700 O             1 RES     
   11111 O           51.2920   119.6120     8.2810 O             1 RES     
   11112 O           74.1240   112.2340     5.0580 O             1 RES     
   11113 Si          53.8400   103.8590     8.0030 Si            1 RES     
   11114 Si          52.7330   107.5870     9.8720 Si            1 RES     
   11115 O           57.5060   125.9090    11.4880 O             1 RES     
   11116 Si          58.4160   124.7610     7.8710 Si            1 RES     
   11117 OS          51.2370   116.9980    13.2580 OS            1 RES     
   11118 O           64.4070   102.7210     7.7180 O             1 RES     
   11119 O           75.0570   140.4720    11.2770 O             1 RES     
   11120 O           71.3450   131.9200     4.4470 O             1 RES     
   11121 Si          61.9350   139.3810     9.6200 Si            1 RES     
   11122 Si          62.9040   102.3990     7.3500 Si            1 RES     
   11123 O           84.6530   104.1580     4.0910 O             1 RES     
   11124 Si          70.6580   132.5660     5.7020 Si            1 RES     
   11125 O           59.9550   106.7670    10.5320 O             1 RES     
   11126 O           56.3270   149.7210     5.6860 O             1 RES     
   11127 O           78.0230   123.1170     4.3880 O             1 RES     
   11128 Si          63.5940   101.3770     4.4050 Si            1 RES     
   11129 O           76.0460   112.7870     7.0520 O             1 RES     
   11130 Si          58.1330   139.0510    11.0320 Si            1 RES     
   11131 O           79.3400   100.0210     9.9030 O             1 RES     
   11132 OS          70.6290   119.5290    12.8240 OS            1 RES     
   11133 O           96.3110   116.6070     5.0460 O             1 RES     
   11134 O           85.1690   109.0720     8.2150 O             1 RES     
   11135 O           72.7640   136.2150    10.5800 O             1 RES     
   11136 O           71.7240   104.2780    11.3080 O             1 RES     
   11137 O           80.1630   119.2540     8.8420 O             1 RES     
   11138 Si          65.8320   117.6140    10.7090 Si            1 RES     
   11139 O           99.4760   139.6740     5.8810 O             1 RES     
   11140 O           67.5210   113.0590     3.3260 O             1 RES     
   11141 Si          63.2090   143.8680     5.5150 Si            1 RES     
   11142 O           86.7560   128.3420     3.2740 O             1 RES     
   11143 O           50.1930   108.2110     7.5440 O             1 RES     
   11144 O           90.9160   108.9220     9.0310 O             1 RES     
   11145 Si          85.5870   148.5000    12.5270 Si            1 RES     
   11146 OS          82.5230   130.9610    12.8910 OS            1 RES     
   11147 Si          76.3850   130.8540     4.7940 Si            1 RES     
   11148 Si          71.2500   100.8260    12.5180 Si            1 RES     
   11149 O           77.9370   128.7950     7.4510 O             1 RES     
   11150 Si          82.3110   101.7010    11.9900 Si            1 RES     
   11151 O           70.8080   103.1280     6.0350 O             1 RES     
   11152 O           90.3960   119.4270    10.0400 O             1 RES     
   11153 O           58.1620   144.6540     3.9810 O             1 RES     
   11154 O           81.2400   147.1840     7.4300 O             1 RES     
   11155 O           73.7120   102.8520    10.9510 O             1 RES     
   11156 Si          71.9530   149.8670     5.1650 Si            1 RES     
   11157 O           78.4080   132.9060    12.4150 O             1 RES     
   11158 Si          52.6000   139.6720    10.1250 Si            1 RES     
   11159 Si          64.2540   120.1500     9.5970 Si            1 RES     
   11160 Si          83.7110   111.3420    11.5940 Si            1 RES     
   11161 O           52.3200   136.0940    10.2110 O             1 RES     
   11162 Si          83.6340   136.2480     7.9020 Si            1 RES     
   11163 O           60.7800   105.6640    12.5930 O             1 RES     
   11164 O           74.1490   143.2310    10.0890 O             1 RES     
   11165 O           93.1390   128.5830    10.8060 O             1 RES     
   11166 O           97.2410   105.9820    11.9870 O             1 RES     
   11167 Si          63.1380   110.7930    10.3950 Si            1 RES     
   11168 O           67.1380   133.0670    11.5390 O             1 RES     
   11169 Si          76.4910   129.8150    11.3490 Si            1 RES     
   11170 O           68.5480   112.0030     5.4170 O             1 RES     
   11171 O           81.5450   135.9710     4.5650 O             1 RES     
   11172 Si          50.7740   147.0520     3.7350 Si            1 RES     
   11173 O           52.5520   107.5940     3.3250 O             1 RES     
   11174 Si          95.9920   132.1560     8.3110 Si            1 RES     
   11175 O           94.3380   146.0900     7.4270 O             1 RES     
   11176 Si          93.0130   129.5670     5.5960 Si            1 RES     
   11177 Si          93.2570   104.0900    10.1390 Si            1 RES     
   11178 OS          56.7530   110.6080    12.1240 OS            1 RES     
   11179 Si          77.4220   103.6870    10.1520 Si            1 RES     
   11180 O           67.8060   100.4220     4.2120 O             1 RES     
   11181 O           88.2740   106.0910    11.2360 O             1 RES     
   11182 O           54.5930   139.7580     5.1360 O             1 RES     
   11183 Si          78.9100   101.9180     6.1170 Si            1 RES     
   11184 O           61.7560   106.7500     4.0410 O             1 RES     
   11185 Si          74.7800   137.9610     5.9250 Si            1 RES     
   11186 O           59.0370   108.2650     8.6630 O             1 RES     
   11187 O           87.7560   132.9340     2.4400 O             1 RES     
   11188 OS          54.5950   149.1400    14.5170 OS            1 RES     
   11189 O           74.6140   121.0140    11.8510 O             1 RES     
   11190 O           60.7970   147.4620     6.5500 O             1 RES     
   11191 Si          71.8370   141.1810     9.1520 Si            1 RES     
   11192 O           59.1480   107.9230     3.5290 O             1 RES     
   11193 Si          90.5370   109.9940    10.0790 Si            1 RES     
   11194 O           55.7350   105.3190    11.2190 O             1 RES     
   11195 O           51.9570   138.9090     4.9630 O             1 RES     
   11196 O           89.2870   140.1540    10.0700 O             1 RES     
   11197 O           53.8470   117.0590     4.3490 O             1 RES     
   11198 O           67.8950   141.6230     7.1700 O             1 RES     
   11199 Si          91.1600   132.1080     9.2800 Si            1 RES     
   11200 Si          57.5300   118.7090     4.5500 Si            1 RES     
   11201 O           89.2430   110.7900     9.7430 O             1 RES     
   11202 O           88.8950   114.7690     9.3090 O             1 RES     
   11203 Si          82.5590   137.3940    10.4550 Si            1 RES     
   11204 O           86.1270   146.5280     6.8370 O             1 RES     
   11205 O           85.6710   107.5290     3.6010 O             1 RES     
   11206 Si          91.2410   105.5420     6.0670 Si            1 RES     
   11207 O           94.3530   147.2570     5.2990 O             1 RES     
   11208 O           71.0960   111.5510    11.3260 O             1 RES     
   11209 O           86.3140   147.7270     2.8030 O             1 RES     
   11210 Si          53.2690   107.8770     4.6890 Si            1 RES     
   11211 Si          94.3260   132.8360    10.9620 Si            1 RES     
   11212 O           55.9080   144.4830     4.7470 O             1 RES     
   11213 O           87.8670   148.5510     6.9750 O             1 RES     
   11214 Si          97.7890   129.7170     7.8140 Si            1 RES     
   11215 O           60.5360   145.8010    10.8160 O             1 RES     
   11216 O           80.0420   106.9110     3.1560 O             1 RES     
   11217 O           79.3280   125.3040     5.3200 O             1 RES     
   11218 O           52.6590   104.1220     4.7300 O             1 RES     
   11219 O           53.6920   139.0040     2.9030 O             1 RES     
   11220 O           96.0630   107.6860    10.0550 O             1 RES     
   11221 Si          92.8980   139.7550    11.7930 Si            1 RES     
   11222 Si          94.6300   132.1160     5.5620 Si            1 RES     
   11223 Si          56.6730   128.6420     4.1830 Si            1 RES     
   11224 O           85.2920   112.1580     4.2350 O             1 RES     
   11225 O           73.1660   115.8090     4.5290 O             1 RES     
   11226 OS          86.2370   133.6100    13.1820 OS            1 RES     
   11227 O           57.7920   119.5000     3.2450 O             1 RES     
   11228 Si          89.0220   139.1650     3.7950 Si            1 RES     
   11229 O           88.6900   139.3440     5.2950 O             1 RES     
   11230 Si          70.5840   146.4850     9.0350 Si            1 RES     
   11231 Si          76.1220   106.8770     3.7100 Si            1 RES     
   11232 O           70.6050   127.2480    10.9330 O             1 RES     
   11233 O           92.4750   143.0040     4.0240 O             1 RES     
   11234 O           98.6060   116.6050     3.7510 O             1 RES     
   11235 OS          81.7590   128.7610    13.1040 OS            1 RES     
   11236 O           67.4440   110.2380     6.5740 O             1 RES     
   11237 O           79.8050   109.3610     3.5760 O             1 RES     
   11238 O           74.9300   102.2730     5.9240 O             1 RES     
   11239 O           78.3520   110.3970     1.7180 O             1 RES     
   11240 O           95.0480   149.2860     3.9300 O             1 RES     
   11241 O           98.9510   141.4400     9.0160 O             1 RES     
   11242 Si          73.2200   144.8880     8.7860 Si            1 RES     
   11243 O           96.5110   130.6330     8.0910 O             1 RES     
   11244 Si          52.9310   120.3950    11.4460 Si            1 RES     
   11245 O           87.0440   136.4570     7.0990 O             1 RES     
   11246 OS          73.2340   145.3400    13.3730 OS            1 RES     
   11247 Si          54.5790   117.8720    12.0130 Si            1 RES     
   11248 O           81.9420   131.6430     9.0490 O             1 RES     
   11249 Si          70.8980   121.6300     7.9010 Si            1 RES     
   11250 O           70.6810   124.5750    10.5290 O             1 RES     
   11251 Si          99.8680   139.7510    11.6200 Si            1 RES     
   11252 O           96.8890   141.2540    10.2250 O             1 RES     
   11253 Si          91.9310   129.5470    10.6970 Si            1 RES     
   11254 O           50.9740   105.9620     6.5700 O             1 RES     
   11255 O           65.6560   134.3010     8.0550 O             1 RES     
   11256 O           61.1760   149.7570    10.1540 O             1 RES     
   11257 O           66.9850   120.3870     6.9930 O             1 RES     
   11258 O           71.1540   122.3680     9.2110 O             1 RES     
   11259 Si          57.0370   104.9610    12.2210 Si            1 RES     
   11260 O           52.4470   100.3440    10.6000 O             1 RES     
   11261 Si          84.4530   145.6960    12.7250 Si            1 RES     
   11262 O           85.4760   100.9680    10.6270 O             1 RES     
   11263 O           88.3100   116.9160     6.8450 O             1 RES     
   11264 Si          99.5990   110.9130     3.3680 Si            1 RES     
   11265 O           80.3820   140.4390    11.8390 O             1 RES     
   11266 O           52.3780   148.0490     9.1800 O             1 RES     
   11267 O           61.9200   135.5030     8.8340 O             1 RES     
   11268 Si          61.6610   142.2820    11.3350 Si            1 RES     
   11269 O           66.2840   102.2140     9.1100 O             1 RES     
   11270 O           78.8800   123.1380     6.8910 O             1 RES     
   11271 Si          65.1530   108.2330     3.0780 Si            1 RES     
   11272 O           87.6080   116.6840     3.1480 O             1 RES     
   11273 O           66.5280   123.4710     4.8550 O             1 RES     
   11274 O           52.0400   119.3430    10.6480 O             1 RES     
   11275 O           76.6770   132.2300     8.4070 O             1 RES     
   11276 O           84.8490   145.1810     8.5100 O             1 RES     
   11277 O           94.2890   139.3050    11.3820 O             1 RES     
   11278 O           83.8490   120.4930    11.2560 O             1 RES     
   11279 O           72.5550   139.5800     2.1820 O             1 RES     
   11280 O           92.6690   141.1440    11.1220 O             1 RES     
   11281 O           51.5370   126.3480    11.4820 O             1 RES     
   11282 O           56.7110   137.0250     8.4600 O             1 RES     
   11283 O           90.4520   126.0420     4.4160 O             1 RES     
   11284 Si          51.4310   129.3570     4.3530 Si            1 RES     
   11285 Si          79.4410   144.1440     6.3630 Si            1 RES     
   11286 Si          84.5620   137.2000    12.6940 Si            1 RES     
   11287 O           65.4150   117.9690     3.7480 O             1 RES     
   11288 O           98.6890   129.9460     9.1440 O             1 RES     
   11289 Si          69.7040   135.1190     4.3010 Si            1 RES     
   11290 Si          59.2350   140.2780     8.5050 Si            1 RES     
   11291 O           60.1700   122.6780     3.4770 O             1 RES     
   11292 O           78.0260   148.4980     3.9550 O             1 RES     
   11293 Si          60.2590   107.0960     4.3300 Si            1 RES     
   11294 Si          60.7680   100.3680     4.1590 Si            1 RES     
   11295 O           57.4330   133.4430    10.3300 O             1 RES     
   11296 O           87.5930   112.8270     9.0240 O             1 RES     
   11297 O           89.2760   149.7930     5.2960 O             1 RES     
   11298 Si          90.4220   122.1860     8.0240 Si            1 RES     
   11299 O           91.5440   130.2860     5.8490 O             1 RES     
   11300 Si          65.1180   123.4980     5.5180 Si            1 RES     
   11301 O           87.2250   144.6220     8.1630 O             1 RES     
   11302 Si          87.4620   129.9450     6.6480 Si            1 RES     
   11303 O           78.2940   102.3970     9.6980 O             1 RES     
   11304 Si          99.9060   116.3460     2.8790 Si            1 RES     
   11305 O           52.1370   121.5170    12.1680 O             1 RES     
   11306 O           93.6060   134.1830    10.4770 O             1 RES     
   11307 Si          90.0440   122.8680     2.7750 Si            1 RES     
   11308 Si          80.3540   149.4740    11.0060 Si            1 RES     
   11309 O           60.4660   128.0500     3.3230 O             1 RES     
   11310 O           93.5030   129.4090     4.0760 O             1 RES     
   11311 O           62.3350   134.3870    10.9070 O             1 RES     
   11312 Si          80.2830   135.4870    10.0540 Si            1 RES     
   11313 O           51.5180   107.7760    10.8100 O             1 RES     
   11314 OS          63.9350   148.6380    12.4890 OS            1 RES     
   11315 O           61.8470   115.4370     5.8870 O             1 RES     
   11316 Si          86.3330   141.9210    10.7280 Si            1 RES     
   11317 Si          85.4250   149.3560     9.7630 Si            1 RES     
   11318 O           70.1260   110.3950     6.6900 O             1 RES     
   11319 O           92.1540   103.4420    10.9540 O             1 RES     
   11320 OS          98.7590   104.2680    13.4230 OS            1 RES     
   11321 O           84.3070   145.7400    11.1810 O             1 RES     
   11322 Si          78.9580   119.7090    12.6810 Si            1 RES     
   11323 O           63.5450   102.5430     3.3690 O             1 RES     
   11324 Si          60.8420   126.5980     2.8430 Si            1 RES     
   11325 Si          70.2770   123.7320     5.6520 Si            1 RES     
   11326 Si          64.4350   138.4700     8.2500 Si            1 RES     
   11327 O           64.3810   138.4590    11.4540 O             1 RES     
   11328 Si          90.9010   107.9910    12.3730 Si            1 RES     
   11329 Si          54.0140   112.4090     2.8490 Si            1 RES     
   11330 O           96.4900   105.3760     6.6270 O             1 RES     
   11331 O           93.7220   105.6280     2.8890 O             1 RES     
   11332 OS          59.7740   108.0690    12.8280 OS            1 RES     
   11333 O           61.2780   122.8880     6.1010 O             1 RES     
   11334 Si          84.9060   119.1140     7.6960 Si            1 RES     
   11335 O           64.3030   107.0030     3.5270 O             1 RES     
   11336 O           57.6360   104.7540     3.4860 O             1 RES     
   11337 O           51.1770   136.5940     7.9670 O             1 RES     
   11338 Si          91.8900   136.6090     5.6030 Si            1 RES     
   11339 Si          58.3270   124.6850    10.8860 Si            1 RES     
   11340 Si          98.5580   137.0190     4.7550 Si            1 RES     
   11341 O           68.0280   124.1480     2.7820 O             1 RES     
   11342 O           88.2120   140.3700     3.1680 O             1 RES     
   11343 O           63.2290   118.9340     4.1960 O             1 RES     
   11344 O           51.5240   142.1600     5.3490 O             1 RES     
   11345 O           84.2080   141.4020     2.9950 O             1 RES     
   11346 O           59.9340   130.2440     7.3410 O             1 RES     
   11347 O           52.0630   115.5610     2.9380 O             1 RES     
   11348 Si          77.0240   128.3330     8.6310 Si            1 RES     
   11349 O           88.5380   140.3870    12.5310 O             1 RES     
   11350 O           85.8430   105.7330    11.5410 O             1 RES     
   11351 O           77.5350   102.5990     5.9240 O             1 RES     
   11352 Si          93.6470   106.3850     4.3100 Si            1 RES     
   11353 O           92.4490   145.0810     5.6010 O             1 RES     
   11354 O           88.6840   134.5900     7.1850 O             1 RES     
   11355 Si          93.7680   126.7680     6.7440 Si            1 RES     
   11356 O           54.9090   117.5310    10.4690 O             1 RES     
   11357 O           78.7750   105.2600     1.7050 O             1 RES     
   11358 Si          81.4390   121.9590     5.0050 Si            1 RES     
   11359 Si          71.4930   110.7350     7.5580 Si            1 RES     
   11360 O           63.9710   106.4620     5.8890 O             1 RES     
   11361 O           83.0330   113.1450     8.0570 O             1 RES     
   11362 Si          84.9240   133.4730     4.7240 Si            1 RES     
   11363 OS          76.3210   132.7020    13.5690 OS            1 RES     
   11364 Si          81.5440   141.4570    12.4750 Si            1 RES     
   11365 O           75.4890   113.7300    12.0520 O             1 RES     
   11366 Si          91.1940   125.4280     5.6740 Si            1 RES     
   11367 Si          75.0190   133.6200     4.5810 Si            1 RES     
   11368 O           75.8520   137.3180     4.9610 O             1 RES     
   11369 O           76.2680   122.5560     2.5550 O             1 RES     
   11370 O           83.7020   103.5210     8.8710 O             1 RES     
   11371 Si          99.5320   136.2110     7.5480 Si            1 RES     
   11372 O           57.9020   112.8950     5.8120 O             1 RES     
   11373 Si          82.6620   121.5750    11.0900 Si            1 RES     
   11374 Si          91.8410   137.7970     9.8630 Si            1 RES     
   11375 O           74.8970   138.6820     9.4090 O             1 RES     
   11376 O           69.4320   130.9940     8.6450 O             1 RES     
   11377 O           73.0340   106.4600    10.7360 O             1 RES     
   11378 Si          56.1230   121.0220     6.0700 Si            1 RES     
   11379 O           76.2580   107.8970     4.8800 O             1 RES     
   11380 O           74.7020   127.8820     4.0000 O             1 RES     
   11381 O           56.7870   143.4910    11.0880 O             1 RES     
   11382 O           54.7200   126.2960     6.7230 O             1 RES     
   11383 O           87.7030   128.5370     7.3720 O             1 RES     
   11384 O           84.9560   133.9470    11.0150 O             1 RES     
   11385 O           64.4000   121.2030    10.7780 O             1 RES     
   11386 O           67.2170   124.9120    13.6390 O             1 RES     
   11387 O           54.4340   146.6510     3.6400 O             1 RES     
   11388 O           80.7400   141.4030     3.7310 O             1 RES     
   11389 O           54.3840   113.3880    11.0640 O             1 RES     
   11390 OS          72.1030   111.6210    13.7130 OS            1 RES     
   11391 Si          81.4340   147.1230     9.0250 Si            1 RES     
   11392 OS          86.8030   142.6740    12.0850 OS            1 RES     
   11393 Si          72.1270   135.1590     9.6950 Si            1 RES     
   11394 Si          54.3300   141.3140     8.1820 Si            1 RES     
   11395 O           90.7490   128.5730    10.2950 O             1 RES     
   11396 O           82.6930   140.5850     4.9870 O             1 RES     
   11397 O           81.9860   103.9110     4.1460 O             1 RES     
   11398 O           95.5510   109.8530     8.1410 O             1 RES     
   11399 Si          80.2600   126.5190     5.2240 Si            1 RES     
   11400 Si          80.8330   116.8930    12.4020 Si            1 RES     
   11401 O           83.2690   103.5440     1.8200 O             1 RES     
   11402 Si          83.1600   128.3150     9.5480 Si            1 RES     
   11403 OS          94.0770   147.9320    12.2840 OS            1 RES     
   11404 O           97.5480   138.0060     5.6180 O             1 RES     
   11405 Si          87.6450   127.2860     8.3550 Si            1 RES     
   11406 OS          77.5640   124.5850    13.4620 OS            1 RES     
   11407 O           57.1940   124.1080     3.5390 O             1 RES     
   11408 Si          66.4750   100.4530     5.0370 Si            1 RES     
   11409 OS          69.0150   133.9640    12.9490 OS            1 RES     
   11410 Si          63.7360   146.8480     4.7960 Si            1 RES     
   11411 O           95.7160   103.1720     7.7260 O             1 RES     
   11412 O           97.2460   143.8840     6.4930 O             1 RES     
   11413 O           83.8920   107.0090    12.1530 O             1 RES     
   11414 Si          89.0750   105.0900     3.8950 Si            1 RES     
   11415 O           57.5480   121.7370     2.2120 O             1 RES     
   11416 O           88.7150   111.9880     2.8450 O             1 RES     
   11417 O           67.3960   145.5620     7.7220 O             1 RES     
   11418 Si          75.4570   100.0150     8.9280 Si            1 RES     
   11419 O           76.8410   131.3830    11.3970 O             1 RES     
   11420 Si          56.6870   128.7520     8.6050 Si            1 RES     
   11421 O           72.9350   108.4130     3.4420 O             1 RES     
   11422 O           89.6580   123.4910     8.2180 O             1 RES     
   11423 O           90.5220   113.4140     7.5850 O             1 RES     
   11424 O           62.5910   140.7200     5.2870 O             1 RES     
   11425 OS          79.9960   121.1650    13.4540 OS            1 RES     
   11426 Si          91.0860   112.8460     6.2010 Si            1 RES     
   11427 Si          66.5360   142.3980     6.8450 Si            1 RES     
   11428 O           55.2850   129.5070     8.5800 O             1 RES     
   11429 Si          95.8050   126.2980     2.8180 Si            1 RES     
   11430 O           63.0470   146.5060     7.9250 O             1 RES     
   11431 O           50.7180   149.8240     8.9760 O             1 RES     
   11432 Si          61.1980   135.2150    10.2120 Si            1 RES     
   11433 O           66.1250   127.2630     7.1250 O             1 RES     
   11434 O           92.0090   108.9310     6.7160 O             1 RES     
   11435 O           79.4600   107.4260     7.0500 O             1 RES     
   11436 Si          74.4940   116.1220     5.1530 Si            1 RES     
   11437 O           64.2950   124.3120     4.4240 O             1 RES     
   11438 O           79.1570   132.0700     6.3030 O             1 RES     
   11439 O           66.2070   142.0650     2.8460 O             1 RES     
   11440 Si          59.1930   102.1070     6.1930 Si            1 RES     
   11441 O           72.3780   110.9030     3.1270 O             1 RES     
   11442 O           79.5450   127.8690     5.5900 O             1 RES     
   11443 Si          59.7130   135.8030     6.0890 Si            1 RES     
   11444 O           66.2530   139.6080     2.5560 O             1 RES     
   11445 O           86.1380   134.2730     4.0100 O             1 RES     
   11446 O           88.8820   142.7470     2.5550 O             1 RES     
   11447 O           91.4980   104.0980     6.5750 O             1 RES     
   11448 O           94.7810   141.7280     3.7870 O             1 RES     
   11449 Si          71.5530   137.3940     5.0980 Si            1 RES     
   11450 O           65.2540   146.7190     5.0130 O             1 RES     
   11451 Si          98.3050   108.8110     5.0710 Si            1 RES     
   11452 Si          69.3380   136.4260     9.9850 Si            1 RES     
   11453 O           97.7060   108.7760     8.5610 O             1 RES     
   11454 O           66.0610   106.3310     7.6540 O             1 RES     
   11455 O           98.3560   110.4680     2.3570 O             1 RES     
   11456 Si          57.5970   115.8860     3.3550 Si            1 RES     
   11457 Si          83.3320   142.4600    10.1280 Si            1 RES     
   11458 Si          96.0100   136.0040     3.3990 Si            1 RES     
   11459 O           96.9380   140.5590     4.9240 O             1 RES     
   11460 Si          64.4050   118.2450     4.9420 Si            1 RES     
   11461 O           96.1040   111.4080     5.6420 O             1 RES     
   11462 O           77.3830   108.8200     6.7370 O             1 RES     
   11463 O           81.8700   115.0560     3.2500 O             1 RES     
   11464 Si          65.9070   110.0890     6.7220 Si            1 RES     
   11465 O           60.8390   115.5770    10.8400 O             1 RES     
   11466 Si          53.8790   123.8550     9.3030 Si            1 RES     
   11467 O           60.9570   121.5610     8.4690 O             1 RES     
   11468 Si          57.0870   127.4220    11.3940 Si            1 RES     
   11469 O           92.1170   120.9600    11.0440 O             1 RES     
   11470 O           91.2090   106.6220     7.2350 O             1 RES     
   11471 Si          53.2300   116.7320     5.8630 Si            1 RES     
   11472 O           75.0490   141.8660     6.4780 O             1 RES     
   11473 Si          51.2730   144.7730    10.5840 Si            1 RES     
   11474 O           52.6120   146.4420     7.0790 O             1 RES     
   11475 O           63.6390   149.8840    10.2120 O             1 RES     
   11476 O           80.6700   134.1810     9.2810 O             1 RES     
   11477 Si          91.1270   142.6480     8.1450 Si            1 RES     
   11478 O           90.0150   106.7220    12.7820 O             1 RES     
   11479 OS          96.5220   114.8410    13.6800 OS            1 RES     
   11480 O           69.5030   137.4470    11.1780 O             1 RES     
   11481 O           90.1420   118.5980     7.4890 O             1 RES     
   11482 O           56.4810   145.2430    12.8770 O             1 RES     
   11483 O           53.6000   144.9390     4.7370 O             1 RES     
   11484 O           90.1310   132.9500    10.1810 O             1 RES     
   11485 Si          76.6890   116.7210     3.0580 Si            1 RES     
   11486 OS          73.2980   116.4810    11.5780 OS            1 RES     
   11487 O           57.4210   133.3580     4.5400 O             1 RES     
   11488 O           97.3600   132.4420     2.6270 O             1 RES     
   11489 O           88.3920   145.2230     3.4960 O             1 RES     
   11490 O           52.3880   118.0540     6.4230 O             1 RES     
   11491 O           75.3700   136.4550     2.4690 O             1 RES     
   11492 O           83.4470   113.1420     3.1830 O             1 RES     
   11493 OS          74.0410   123.1650    13.5520 OS            1 RES     
   11494 O           86.7380   134.8560     9.1230 O             1 RES     
   11495 O           93.6660   135.3340     8.4330 O             1 RES     
   11496 O           89.8860   102.2040    10.2160 O             1 RES     
   11497 OS          99.6020   112.7850    13.2680 OS            1 RES     
   11498 O           83.9400   124.2910     2.7330 O             1 RES     
   11499 O           61.1720   118.9820     5.3790 O             1 RES     
   11500 O           64.0480   109.3350     3.0620 O             1 RES     
   11501 O           92.7380   134.8950     2.7400 O             1 RES     
   11502 O           95.4570   130.3800     2.5570 O             1 RES     
   11503 O           84.2480   135.0790     8.7640 O             1 RES     
   11504 O           64.3800   126.3200    10.8220 O             1 RES     
   11505 Si          55.3480   149.4170    12.7330 Si            1 RES     
   11506 O           84.2900   104.8140    13.7120 O             1 RES     
   11507 O           91.5300   111.3990     6.3670 O             1 RES     
   11508 O           96.0850   135.4200     1.9540 O             1 RES     
   11509 Si          61.4050   122.6560     4.4670 Si            1 RES     
   11510 Si          55.4440   146.3220    12.6150 Si            1 RES     
   11511 O           97.9650   103.8760     8.0230 O             1 RES     
   11512 O           72.6100   124.2770     9.1200 O             1 RES     
   11513 O           58.7410   103.2920     5.2770 O             1 RES     
   11514 O           93.1120   113.3500    10.8740 O             1 RES     
   11515 O           90.3440   148.4660     7.4730 O             1 RES     
   11516 OS          53.4810   104.3130    11.9250 OS            1 RES     
   11517 OS          65.4450   137.0720    13.3770 OS            1 RES     
   11518 O           80.5520   132.6320    11.0970 O             1 RES     
   11519 O           64.9040   113.0700     7.7000 O             1 RES     
   11520 Si          93.4640   134.5120     4.1050 Si            1 RES     
   11521 O           87.2750   141.3190     6.3480 O             1 RES     
   11522 O           66.5790   108.1120     3.7590 O             1 RES     
   11523 O           94.9030   117.5790     9.8250 O             1 RES     
   11524 O           92.4170   123.6620    11.1840 O             1 RES     
   11525 Si          61.8210   119.6120     4.0960 Si            1 RES     
   11526 O           54.2290   104.2180     9.5200 O             1 RES     
   11527 O           61.9240   103.5670     7.9060 O             1 RES     
   11528 Si          73.2640   128.3340     4.5650 Si            1 RES     
   11529 Si          60.6550   115.6260     6.9070 Si            1 RES     
   11530 Si          66.6240   147.4700     4.8540 Si            1 RES     
   11531 O           92.4230   143.5150    11.6360 O             1 RES     
   11532 O           94.6300   113.0840     4.7050 O             1 RES     
   11533 O           74.8870   123.7760     8.7800 O             1 RES     
   11534 Si          94.1340   114.4970    10.5390 Si            1 RES     
   11535 O           51.7890   111.3740     9.7400 O             1 RES     
   11536 Si          86.3550   148.1240     7.1680 Si            1 RES     
   11537 O           60.2310   149.0210     4.5630 O             1 RES     
   11538 O           78.3610   124.1750     9.0730 O             1 RES     
   11539 O           70.6590   143.6390     4.2780 O             1 RES     
   11540 Si          69.3750   141.1540     7.3020 Si            1 RES     
   11541 O           80.9560   111.5940     8.6360 O             1 RES     
   11542 OS          68.8340   109.1030    13.2000 OS            1 RES     
   11543 OS          68.5960   117.9340    13.0090 OS            1 RES     
   11544 O           96.4730   101.5150     3.5410 O             1 RES     
   11545 O           62.2390   125.8070     3.0760 O             1 RES     
   11546 O           84.3740   121.7230     2.4900 O             1 RES     
   11547 O           57.1170   149.6020     8.2970 O             1 RES     
   11548 O           57.2630   140.2660     5.4760 O             1 RES     
   11549 Si          55.9150   139.6130     6.0160 Si            1 RES     
   11550 Si          59.3260   130.2780     8.7720 Si            1 RES     
   11551 O           71.8550   112.2470     7.6560 O             1 RES     
   11552 Si          82.0220   145.5090     3.4310 Si            1 RES     
   11553 Si          76.3280   136.2830     3.8650 Si            1 RES     
   11554 Si          79.2960   149.2110     4.6370 Si            1 RES     
   11555 Si          59.8470   149.8200    11.0250 Si            1 RES     
   11556 O           73.2350   137.5940     5.5630 O             1 RES     
   11557 O           54.4610   104.4630     6.6550 O             1 RES     
   11558 O           87.6840   104.5540     4.2990 O             1 RES     
   11559 O           58.1540   143.7040     6.2390 O             1 RES     
   11560 O           66.5850   103.8740     7.1990 O             1 RES     
   11561 Si          93.4070   114.0150     4.5790 Si            1 RES     
   11562 O           79.2980   138.8270     7.6790 O             1 RES     
   11563 O           79.3870   121.7350     9.2020 O             1 RES     
   11564 Si          69.1950   149.8120     3.6240 Si            1 RES     
   11565 O           88.6720   138.0910    11.0390 O             1 RES     
   11566 Si          87.7770   135.5230     8.0530 Si            1 RES     
   11567 O           50.8420   123.7000    11.6950 O             1 RES     
   11568 Si          95.3090   146.5390     8.6930 Si            1 RES     
   11569 O           90.1670   132.8790     5.9980 O             1 RES     
   11570 O           99.4920   112.2080     4.3130 O             1 RES     
   11571 Si          93.2470   118.1450     6.8110 Si            1 RES     
   11572 O           51.2610   145.9670     4.7330 O             1 RES     
   11573 O           70.5560   106.5140    11.2540 O             1 RES     
   11574 Si          96.4700   121.9070     5.5860 Si            1 RES     
   11575 O           83.7270   104.7470    11.2180 O             1 RES     
   11576 O           98.7680   139.6940    10.5490 O             1 RES     
   11577 Si          53.4020   101.0840     6.7640 Si            1 RES     
   11578 O           71.3330   101.8710    11.3530 O             1 RES     
   11579 O           85.5060   111.1090     6.4490 O             1 RES     
   11580 O           76.7580   104.1720     8.6430 O             1 RES     
   11581 O           94.5140   128.1680    12.7980 O             1 RES     
   11582 O           87.1250   104.6340     6.7400 O             1 RES     
   11583 Si          92.0090   108.7670     3.2600 Si            1 RES     
   11584 Si          96.1000   112.5440     4.5270 Si            1 RES     
   11585 O           99.5030   140.8540    12.6370 O             1 RES     
   11586 O           61.7300   111.3630    10.8470 O             1 RES     
   11587 Si          60.5060   103.9990     8.3070 Si            1 RES     
   11588 O           76.4340   142.8610    11.3620 O             1 RES     
   11589 OS          60.2690   120.2770    12.7150 OS            1 RES     
   11590 O           54.0880   106.5780     5.0410 O             1 RES     
   11591 Si          54.7960   145.1350     3.8250 Si            1 RES     
   11592 Si          67.2500   136.7620     5.3500 Si            1 RES     
   11593 O           72.6580   135.0170     8.1920 O             1 RES     
   11594 O           54.7760   111.3850     3.7570 O             1 RES     
   11595 Si          52.1730   130.1660    10.6390 Si            1 RES     
   11596 OS          79.6660   109.5910    12.2180 OS            1 RES     
   11597 Si          51.5830   119.4170     6.7290 Si            1 RES     
   11598 Si          54.1910   130.4610     4.9740 Si            1 RES     
   11599 O           68.7420   119.2920     3.6040 O             1 RES     
   11600 OS          79.6860   144.8840    11.6080 OS            1 RES     
   11601 Si          71.1900   142.2330     4.8640 Si            1 RES     
   11602 O           80.7800   120.5740     4.9990 O             1 RES     
   11603 O           69.1700   119.3410     6.1340 O             1 RES     
   11604 Si          71.9210   105.8130    11.6850 Si            1 RES     
   11605 O           80.8090   116.9810     1.4340 O             1 RES     
   11606 O           69.2280   134.6030     2.8800 O             1 RES     
   11607 Si          54.1090   105.0000     5.1770 Si            1 RES     
   11608 O           56.3600   118.8940     8.8740 O             1 RES     
   11609 O           56.2940   100.6990     3.4020 O             1 RES     
   11610 O           65.1280   103.2530    11.2180 O             1 RES     
   11611 Si          74.5940   116.9940    10.8350 Si            1 RES     
   11612 Si          62.2190   147.6710     7.2280 Si            1 RES     
   11613 O           87.6340   143.1750     4.6860 O             1 RES     
   11614 OS          90.8040   109.0420    13.7160 OS            1 RES     
   11615 Si          77.3070   145.2360     8.2250 Si            1 RES     
   11616 O           83.9980   122.9060     7.6760 O             1 RES     
   11617 O           95.1190   137.2770     3.0810 O             1 RES     
   11618 O           56.8140   147.4990     9.5180 O             1 RES     
   11619 O           64.2680   143.1000     4.5660 O             1 RES     
   11620 O           91.9410   138.7310    11.1050 O             1 RES     
   11621 O           55.3760   140.2880     7.4140 O             1 RES     
   11622 O           90.1690   143.8500     4.6990 O             1 RES     
   11623 O           77.7100   140.7150     6.5120 O             1 RES     
   11624 O           90.9140   141.0570     8.2180 O             1 RES     
   11625 O           80.0460   140.2740     5.7160 O             1 RES     
   11626 O           67.3190   147.0070     3.5200 O             1 RES     
   11627 Si          82.9580   104.0070    10.1090 Si            1 RES     
   11628 Si          84.8320   134.0840    12.5900 Si            1 RES     
   11629 OS          57.6280   143.2180    13.5850 OS            1 RES     
   11630 Si          97.7210   126.6370     7.6180 Si            1 RES     
   11631 O           80.9160   126.5840     3.7620 O             1 RES     
   11632 O           73.9220   142.3280    12.3240 O             1 RES     
   11633 OS          75.8880   140.5100    13.6960 OS            1 RES     
   11634 O           86.9150   115.8830     8.6820 O             1 RES     
   11635 O           71.1230   147.8380     9.4230 O             1 RES     
   11636 O           94.2260   101.4090     2.5910 O             1 RES     
   11637 O           71.3940   124.2170     4.6260 O             1 RES     
   11638 OS          88.1040   125.3190    12.6240 OS            1 RES     
   11639 Si          82.5640   111.8050     8.6730 Si            1 RES     
   11640 O           83.7820   118.0900     7.4940 O             1 RES     
   11641 OS          59.2800   139.5730    11.9060 OS            1 RES     
   11642 O           51.9720   101.2120     6.1930 O             1 RES     
   11643 O           96.1200   147.9080     8.9550 O             1 RES     
   11644 O           65.0400   145.0910     8.8960 O             1 RES     
   11645 O           90.8230   125.8370     1.9520 O             1 RES     
   11646 O           55.1570   133.7200     3.2020 O             1 RES     
   11647 Si          93.0790   147.3120    11.1950 Si            1 RES     
   11648 O           59.7870   141.1050     4.7360 O             1 RES     
   11649 O           56.1870   110.7460     5.5900 O             1 RES     
   11650 O           84.0590   149.7060     8.3830 O             1 RES     
   11651 O           96.9490   142.9200     4.2110 O             1 RES     
   11652 O           90.5380   139.4770     3.5280 O             1 RES     
   11653 O           75.0980   148.5330     8.5770 O             1 RES     
   11654 Si          83.8420   145.4100     9.7360 Si            1 RES     
   11655 O           51.0700   129.6330     2.7850 O             1 RES     
   11656 O           81.7480   146.3360     4.7500 O             1 RES     
   11657 O           96.7180   143.3970    11.7750 O             1 RES     
   11658 O           95.9950   125.4950     4.1030 O             1 RES     
   11659 Si          74.4620   120.2280     4.2260 Si            1 RES     
   11660 O           51.2180   140.0580    10.7650 O             1 RES     
   11661 O           99.7400   119.9800    10.4620 O             1 RES     
   11662 O           86.5850   107.6310    10.1330 O             1 RES     
   11663 O           82.3760   149.8430     3.1810 O             1 RES     
   11664 OS          79.5430   149.3210    12.4220 OS            1 RES     
   11665 Si          88.2170   148.4220    11.3390 Si            1 RES     
   11666 O           71.5430   131.5880     9.9880 O             1 RES     
   11667 O           84.2360   127.1980    10.1070 O             1 RES     
   11668 Si          78.9930   105.7800     3.1930 Si            1 RES     
   11669 O           66.7080   112.7920     9.7260 O             1 RES     
   11670 OS          58.3120   128.2320    12.0050 OS            1 RES     
   11671 Si          67.5100   125.8340    12.3960 Si            1 RES     
   11672 O           63.1120   145.4360     5.0930 O             1 RES     
   11673 O           58.6580   138.8890     7.8230 O             1 RES     
   11674 O           75.4570   130.2240     5.8030 O             1 RES     
   11675 OS          65.4610   130.9980    12.0200 OS            1 RES     
   11676 OS          70.9830   117.0100    12.4260 OS            1 RES     
   11677 O           52.5790   123.0990     5.9300 O             1 RES     
   11678 Si          73.6140   120.2550     7.2040 Si            1 RES     
   11679 O           62.8580   128.5260    10.3000 O             1 RES     
   11680 Si          99.4750   131.2930     5.8120 Si            1 RES     
   11681 O           80.2560   107.0160    13.1400 O             1 RES     
   11682 O           51.0510   142.4950     2.7780 O             1 RES     
   11683 O           97.2880   139.8280     7.4040 O             1 RES     
   11684 Si          68.5590   146.0310     6.8330 Si            1 RES     
   11685 Si          84.5940   112.1700     2.8700 Si            1 RES     
   11686 Si          72.8780   132.3050    10.6540 Si            1 RES     
   11687 O           90.5280   115.8970     7.9670 O             1 RES     
   11688 O           99.8640   121.4210    12.6100 O             1 RES     
   11689 Si          92.2390   103.0160     7.4680 Si            1 RES     
   11690 OS          53.7080   132.8340    13.4430 OS            1 RES     
   11691 O           52.5300   134.7780    12.6110 O             1 RES     
   11692 O           99.6160   116.5430    11.2260 O             1 RES     
   11693 Si          77.6710   125.6370    12.2540 Si            1 RES     
   11694 O           59.4760   125.8230     3.2250 O             1 RES     
   11695 OS          66.1200   118.1080    12.2320 OS            1 RES     
   11696 Si          52.5000   136.8800     8.8330 Si            1 RES     
   11697 O           60.4580   119.5140    10.2270 O             1 RES     
   11698 O           81.5910   100.4320    11.3760 O             1 RES     
   11699 O           56.2520   103.0190     2.5250 O             1 RES     
   11700 O           73.7620   120.4510     5.6460 O             1 RES     
   11701 O           56.4440   128.1370     2.6900 O             1 RES     
   11702 Si          82.9600   116.8100     7.8490 Si            1 RES     
   11703 O           95.8420   112.2230     2.9200 O             1 RES     
   11704 Si          82.2490   134.8590     5.3880 Si            1 RES     
   11705 O           93.5730   119.3770     5.9410 O             1 RES     
   11706 O           91.4800   111.2340    10.4330 O             1 RES     
   11707 O           77.1300   119.9590    11.9050 O             1 RES     
   11708 O           65.5340   125.4820     8.9350 O             1 RES     
   11709 O           78.6790   123.3450     2.1370 O             1 RES     
   11710 O           94.5210   117.3100     6.5560 O             1 RES     
   11711 O           63.6740   144.1950     7.0730 O             1 RES     
   11712 OS          64.3730   114.0060    12.1490 OS            1 RES     
   11713 O           65.2320   124.6720     6.5390 O             1 RES     
   11714 O           60.0290   105.5380     8.3100 O             1 RES     
   11715 Si          75.5300   122.6310     7.8570 Si            1 RES     
   11716 O           52.1790   147.9090     3.7720 O             1 RES     
   11717 Si          78.9950   123.7520     5.4270 Si            1 RES     
   11718 Si          53.1650   110.6790    10.1300 Si            1 RES     
   11719 O           66.2890   128.8230     5.1010 O             1 RES     
   11720 O           67.3520   132.1840     7.5460 O             1 RES     
   11721 O           84.8070   139.4040     4.0380 O             1 RES     
   11722 Si          86.5260   142.5080     5.6500 Si            1 RES     
   11723 O           69.9540   106.7290     6.2850 O             1 RES     
   11724 OS          54.6190   112.9200    13.5930 OS            1 RES     
   11725 O           52.3390   104.1420     7.6210 O             1 RES     
   11726 O           91.9660   130.8780     9.8350 O             1 RES     
   11727 Si          85.8660   149.2400     2.9200 Si            1 RES     
   11728 O           58.7220   118.7280     5.6150 O             1 RES     
   11729 O           64.6250   103.0450    13.8430 O             1 RES     
   11730 Si          85.9630   137.4350     6.4760 Si            1 RES     
   11731 Si          55.4570   115.2780     7.5350 Si            1 RES     
   11732 OS          77.9400   114.5790    12.6080 OS            1 RES     
   11733 Si          93.3240   141.8310     3.2860 Si            1 RES     
   11734 Si          93.4030   146.2690     6.1900 Si            1 RES     
   11735 Si          79.6460   111.3040     7.7860 Si            1 RES     
   11736 O           86.5260   114.3320    10.5830 O             1 RES     
   11737 O           86.0060   143.7990     6.4990 O             1 RES     
   11738 Si          58.0120   114.4310     6.0600 Si            1 RES     
   11739 O           88.2490   118.3300     8.8490 O             1 RES     
   11740 O           93.7310   119.8350     3.3930 O             1 RES     
   11741 O           77.6680   135.9060     3.0870 O             1 RES     
   11742 O           50.4900   143.5340    10.0180 O             1 RES     
   11743 O           63.6420   135.4190     6.9260 O             1 RES     
   11744 O           62.7540   111.4440     2.6230 O             1 RES     
   11745 Si          62.9910   127.1330    10.9580 Si            1 RES     
   11746 Si          73.8630   145.8620    11.9930 Si            1 RES     
   11747 O           72.2970   148.3590     5.3120 O             1 RES     
   11748 Si          75.9610   105.2320     7.8690 Si            1 RES     
   11749 O           74.2940   101.8930     2.7680 O             1 RES     
   11750 O           66.4760   137.7040     4.3180 O             1 RES     
   11751 O           72.5200   149.9330    12.4180 O             1 RES     
   11752 O           88.9960   106.4630     3.1540 O             1 RES     
   11753 Si          60.7150   131.6810    12.0640 Si            1 RES     
   11754 O           84.5510   135.6090    12.8760 O             1 RES     
   11755 Si          90.2900   117.2020     6.6710 Si            1 RES     
   11756 O           50.1750   117.8730     2.5890 O             1 RES     
   11757 O           94.9450   125.3230     1.8730 O             1 RES     
   11758 O           75.4540   116.6890     4.0590 O             1 RES     
   11759 O           71.2320   141.1290     3.7910 O             1 RES     
   11760 O           97.9910   120.1320     7.5240 O             1 RES     
   11761 O           78.9260   101.4310     7.6320 O             1 RES     
   11762 Si          74.1400   106.9550     9.6920 Si            1 RES     
   11763 Si          60.0460   145.8610    12.3140 Si            1 RES     
   11764 O           69.5920   146.6460     7.8140 O             1 RES     
   11765 O           99.2820   113.9790     6.4470 O             1 RES     
   11766 Si          82.7610   130.8370     8.0090 Si            1 RES     
   11767 OS          86.0280   119.1090    11.6440 OS            1 RES     
   11768 O           75.9280   136.2850     9.9660 O             1 RES     
   11769 Si          58.0890   109.1650     3.4690 Si            1 RES     
   11770 O           57.4840   143.0870     8.6110 O             1 RES     
   11771 O           51.1320   127.7500     4.4110 O             1 RES     
   11772 Si          91.8280   148.1740     7.9800 Si            1 RES     
   11773 Si          88.2600   109.3290     6.6120 Si            1 RES     
   11774 O           90.4440   145.0910    11.7210 O             1 RES     
   11775 O           72.1720   128.9880    12.0870 O             1 RES     
   11776 O           72.5850   142.3680     5.5940 O             1 RES     
   11777 OS          56.3640   100.9860    13.3560 OS            1 RES     
   11778 O           71.1010   118.6210     4.3820 O             1 RES     
   11779 O           78.6020   125.5380    10.9880 O             1 RES     
   11780 Si          95.1290   116.0420     5.8950 Si            1 RES     
   11781 OS          98.0560   145.4530    12.2910 OS            1 RES     
   11782 O           64.1680   124.4350     1.8690 O             1 RES     
   11783 O           63.8490   113.9900     5.4690 O             1 RES     
   11784 Si          91.6930   122.5180     5.2840 Si            1 RES     
   11785 O           57.7250   110.1780     9.7690 O             1 RES     
   11786 O           65.1780   141.4640     6.7210 O             1 RES     
   11787 O           50.5540   124.3760     6.7230 O             1 RES     
   11788 Si          88.2510   139.6490    11.1770 Si            1 RES     
   11789 O           63.2470   104.9020     3.6700 O             1 RES     
   11790 O           87.0490   108.3670     5.3170 O             1 RES     
   11791 O           68.5340   109.5700     4.7320 O             1 RES     
   11792 O           78.1010   107.5450     8.9600 O             1 RES     
   11793 O           54.4450   149.1510     3.9220 O             1 RES     
   11794 Si          84.1500   100.2340     6.9910 Si            1 RES     
   11795 O           78.9690   100.5530     5.4100 O             1 RES     
   11796 O           75.2910   145.2430    11.4690 O             1 RES     
   11797 O           98.5810   100.0460    12.8100 O             1 RES     
   11798 O           59.1010   141.7060     7.7430 O             1 RES     
   11799 OS          98.7460   116.5420    13.5350 OS            1 RES     
   11800 O           52.8580   131.2520    11.5010 O             1 RES     
   11801 O           78.9490   132.9340     4.0500 O             1 RES     
   11802 Si          96.1820   113.6870    12.6920 Si            1 RES     
   11803 O           72.4060   127.0210     4.5720 O             1 RES     
   11804 O           82.4200   122.4380     3.8130 O             1 RES     
   11805 Si          69.3320   137.9810     7.2560 Si            1 RES     
   11806 OS          63.0730   133.9140    13.3170 OS            1 RES     
   11807 OS          51.1850   149.5760    12.8470 OS            1 RES     
   11808 Si          73.2730   136.9670    11.8210 Si            1 RES     
   11809 O           75.0460   137.2640     7.3890 O             1 RES     
   11810 O           64.9480   119.2350     6.0250 O             1 RES     
   11811 O           70.8760   130.5270     2.4170 O             1 RES     
   11812 Si          97.2880   148.5670     9.7450 Si            1 RES     
   11813 Si          89.1580   105.4970    12.3780 Si            1 RES     
   11814 O           56.1050   135.7080     4.4190 O             1 RES     
   11815 O           86.5980   102.3970    12.3880 O             1 RES     
   11816 Si          65.4760   120.6070     6.7620 Si            1 RES     
   11817 O           64.5900   133.3570    11.3350 O             1 RES     
   11818 Si          67.0470   100.9500    12.4370 Si            1 RES     
   11819 O           52.3170   107.2640     8.3850 O             1 RES     
   11820 O           59.0200   136.3940     7.3610 O             1 RES     
   11821 O           50.4130   136.1710    11.9020 O             1 RES     
   11822 O           57.3160   117.2230    10.7510 O             1 RES     
   11823 O           98.3180   149.4250     8.8890 O             1 RES     
   11824 Si          96.3050   107.2390    11.5810 Si            1 RES     
   11825 Si          50.9870   122.4530    12.7220 Si            1 RES     
   11826 O           76.4740   116.1000     1.6920 O             1 RES     
   11827 O           62.6550   143.2920    11.9990 O             1 RES     
   11828 O           58.1300   103.5870    11.1090 O             1 RES     
   11829 O           93.5260   105.4500    13.6310 O             1 RES     
   11830 O           62.0960   109.1050     6.9030 O             1 RES     
   11831 Si          84.7290   119.2200    10.7460 Si            1 RES     
   11832 O           59.8690   136.6850     4.6570 O             1 RES     
   11833 O           91.9290   117.3280     6.3350 O             1 RES     
   11834 O           59.4350   146.6280     4.5100 O             1 RES     
   11835 O           90.4240   108.4670     2.8820 O             1 RES     
   11836 Si          76.2590   107.5200    11.9100 Si            1 RES     
   11837 O           82.8230   146.4750     9.3520 O             1 RES     
   11838 Si          56.6160   122.6860     3.5980 Si            1 RES     
   11839 O           77.6590   126.8770     8.9330 O             1 RES     
   11840 Si          65.6720   143.1520     3.8470 Si            1 RES     
   11841 O           94.8030   125.8370     6.1180 O             1 RES     
   11842 O           62.3800   100.3960     4.1410 O             1 RES     
   11843 O          139.3280    24.2340     3.1580 O             1 RES     
   11844 O          108.4580    48.5390     6.1960 O             1 RES     
   11845 O          109.9370    34.3450     9.7080 O             1 RES     
   11846 O          127.9310    20.9500     2.9650 O             1 RES     
   11847 Si         134.0510    21.9090     6.4800 Si            1 RES     
   11848 O          131.4160    17.1410     7.9150 O             1 RES     
   11849 O          107.4230    25.4710     6.7820 O             1 RES     
   11850 O          147.1120     3.1090     5.5400 O             1 RES     
   11851 O          132.8980     7.8050     9.9470 O             1 RES     
   11852 Si         138.7810    11.9610     4.5220 Si            1 RES     
   11853 O          128.2200     7.4620    11.4690 O             1 RES     
   11854 O          141.5420    22.2820     9.1930 O             1 RES     
   11855 OS         131.7550     1.9730    13.4760 OS            1 RES     
   11856 Si         101.2140    26.3900     3.6200 Si            1 RES     
   11857 O          132.1660    42.1050     9.0280 O             1 RES     
   11858 O          126.2930    46.3710     7.6460 O             1 RES     
   11859 O          117.5360    25.3840     7.5700 O             1 RES     
   11860 OS         145.4190    33.1370    12.1080 OS            1 RES     
   11861 Si         137.4340     4.1390     8.1680 Si            1 RES     
   11862 O          135.4360    32.8570     8.7280 O             1 RES     
   11863 O          123.7070    24.5910     4.9950 O             1 RES     
   11864 O          109.6650    31.9680     5.7910 O             1 RES     
   11865 Si         145.4860    22.8860    10.2000 Si            1 RES     
   11866 Si         119.9930    18.2280    12.3350 Si            1 RES     
   11867 O          124.5250    30.7410     7.9630 O             1 RES     
   11868 O          132.6640    41.9310    11.4990 O             1 RES     
   11869 O          106.5590    27.3500     5.0100 O             1 RES     
   11870 Si         108.9520    33.0600     4.9870 Si            1 RES     
   11871 O          140.1130    25.9410     9.7650 O             1 RES     
   11872 O          120.6210    37.5380     6.4480 O             1 RES     
   11873 Si         124.6920    29.4830     6.9840 Si            1 RES     
   11874 Si         119.3940    15.7420     5.6330 Si            1 RES     
   11875 O          129.8760    11.7970     6.2890 O             1 RES     
   11876 O          137.9360    30.6050     3.1040 O             1 RES     
   11877 O          149.3000    43.1650     4.7740 O             1 RES     
   11878 O          149.2410    15.4300     8.7790 O             1 RES     
   11879 Si         116.0040    25.6960     7.5250 Si            1 RES     
   11880 O          110.2360     3.4110     9.6970 O             1 RES     
   11881 O          143.4210    28.2730     6.3950 O             1 RES     
   11882 O          100.1870    40.6520     3.9740 O             1 RES     
   11883 O          111.9330    36.8760     3.0060 O             1 RES     
   11884 Si         143.8870     0.3740     7.3530 Si            1 RES     
   11885 O          123.3580    12.3080    11.7210 O             1 RES     
   11886 Si         125.3870    41.5760    12.4880 Si            1 RES     
   11887 O          146.0860    21.2950     7.0170 O             1 RES     
   11888 O          121.7340     6.6160     4.3500 O             1 RES     
   11889 O          123.6280    38.4180    11.4120 O             1 RES     
   11890 O          148.4240    30.3200     6.4430 O             1 RES     
   11891 O          114.8410    23.7240    11.1040 O             1 RES     
   11892 O          113.8720     7.7270     8.0010 O             1 RES     
   11893 O          142.9320    35.6550     5.0210 O             1 RES     
   11894 Si         114.9580    22.2990    11.7660 Si            1 RES     
   11895 Si         101.3660    23.9370     5.4410 Si            1 RES     
   11896 O          117.8410    37.7820    13.0870 O             1 RES     
   11897 O          102.1070    45.4170     9.4240 O             1 RES     
   11898 Si         123.7100    28.9220    12.3920 Si            1 RES     
   11899 O          138.9530    35.4330    11.0830 O             1 RES     
   11900 O          118.9750    37.1960     8.6150 O             1 RES     
   11901 O          120.4090    49.8920     4.6600 O             1 RES     
   11902 OS         145.0010    36.9310    13.7540 OS            1 RES     
   11903 O          146.3590    38.6730     9.4100 O             1 RES     
   11904 Si         130.3630    42.9570     3.6210 Si            1 RES     
   11905 O          122.5390     0.6400     1.6870 O             1 RES     
   11906 Si         147.8950    43.8810     5.0840 Si            1 RES     
   11907 O          121.7380    45.4450     8.6830 O             1 RES     
   11908 O          129.7260    34.7920    11.3840 O             1 RES     
   11909 O          128.0750     5.0820    10.5820 O             1 RES     
   11910 Si         124.9300    47.1050     7.6980 Si            1 RES     
   11911 O          149.2420    47.3080     4.1190 O             1 RES     
   11912 O          142.6700    39.8890    13.3630 O             1 RES     
   11913 O          130.4550     7.1310    10.0400 O             1 RES     
   11914 Si         123.1700     7.2460     4.4180 Si            1 RES     
   11915 O          122.6910    40.0080     9.8390 O             1 RES     
   11916 O          109.2430    34.4260     5.6130 O             1 RES     
   11917 Si         135.9510    45.0840     7.4200 Si            1 RES     
   11918 O          113.0020    14.6690    10.0680 O             1 RES     
   11919 Si         122.3030    18.2180     3.4300 Si            1 RES     
   11920 O          138.6920    44.6600     9.9650 O             1 RES     
   11921 Si         105.3750    36.6310     5.4460 Si            1 RES     
   11922 O          131.6610     6.9240     7.6810 O             1 RES     
   11923 OS         102.1040    44.4950    11.9170 OS            1 RES     
   11924 O          133.2710    37.6820     4.3090 O             1 RES     
   11925 O          134.7990    41.8550    10.2240 O             1 RES     
   11926 Si         120.4020    45.1770     4.5950 Si            1 RES     
   11927 Si         130.0820    17.9670     7.9450 Si            1 RES     
   11928 O          130.5780    43.3520     7.2540 O             1 RES     
   11929 O          119.3900    32.4830    10.8440 O             1 RES     
   11930 O          138.7970    47.0110    10.9690 O             1 RES     
   11931 Si         139.4990    19.3740     8.7080 Si            1 RES     
   11932 Si         103.8240    29.5800     7.9930 Si            1 RES     
   11933 OS         126.1210     8.9700    12.5670 OS            1 RES     
   11934 O          137.3440     8.4030     7.9400 O             1 RES     
   11935 O          115.1020    37.0500     8.0510 O             1 RES     
   11936 O          109.6790     3.5510     2.8980 O             1 RES     
   11937 O          131.5790    43.9430     3.5960 O             1 RES     
   11938 Si         135.8900    12.3490     5.6510 Si            1 RES     
   11939 O          104.2640     9.0260     4.7800 O             1 RES     
   11940 O          144.0270    15.3980     4.9560 O             1 RES     
   11941 OS         138.3090    33.0360    11.9640 OS            1 RES     
   11942 Si         132.8510    29.5180    12.2650 Si            1 RES     
   11943 O          122.9350    41.4540     7.9210 O             1 RES     
   11944 O          130.0370    49.7050     3.3810 O             1 RES     
   11945 Si         103.5000    38.7530     4.4320 Si            1 RES     
   11946 O          138.2010    10.6540     7.5920 O             1 RES     
   11947 O          109.7210    44.1600     8.4230 O             1 RES     
   11948 O          138.4650    25.9060     8.1340 O             1 RES     
   11949 O          106.0940    16.2190     8.6880 O             1 RES     
   11950 O          141.3560    36.3370    10.0850 O             1 RES     
   11951 Si         115.1630    35.7140     7.3010 Si            1 RES     
   11952 O          107.6490    16.0520    13.1470 O             1 RES     
   11953 O          131.1850     7.8320     5.0870 O             1 RES     
   11954 O          124.1550    46.1000     8.5750 O             1 RES     
   11955 O          108.2810     6.0230    12.1260 O             1 RES     
   11956 O          145.3310    24.4320     9.8760 O             1 RES     
   11957 Si         125.6960    37.4590     8.8510 Si            1 RES     
   11958 O          102.2070    13.1450    12.8520 O             1 RES     
   11959 O          149.6470    15.8970     1.3740 O             1 RES     
   11960 Si         115.9380    32.7240     8.1010 Si            1 RES     
   11961 Si         107.5200    44.1720    12.3700 Si            1 RES     
   11962 O          130.4440    23.0700     5.2210 O             1 RES     
   11963 O          146.7050    47.7370     5.0130 O             1 RES     
   11964 O          111.4490     7.4630     8.7760 O             1 RES     
   11965 Si         123.7950     1.6760     6.8390 Si            1 RES     
   11966 O          102.8600    30.0720     9.2260 O             1 RES     
   11967 Si         121.9800    30.9280     3.3940 Si            1 RES     
   11968 O          124.3500    18.9630     7.6670 O             1 RES     
   11969 O          108.7010    16.3040     2.2870 O             1 RES     
   11970 Si         122.5320    25.0840     4.1390 Si            1 RES     
   11971 O          103.2820     9.1310    10.0050 O             1 RES     
   11972 Si         118.5560    33.6670    11.4620 Si            1 RES     
   11973 O          139.1110    21.6780     2.3750 O             1 RES     
   11974 O          117.6690    29.6720     7.1160 O             1 RES     
   11975 Si         120.2150     6.4960     4.7090 Si            1 RES     
   11976 Si         126.0590    40.8180     5.8490 Si            1 RES     
   11977 O          128.9650    38.7850    10.2090 O             1 RES     
   11978 O          140.1500    16.6990     2.3940 O             1 RES     
   11979 Si         149.4280     0.5340     8.6050 Si            1 RES     
   11980 O          104.7720    21.7590     6.4550 O             1 RES     
   11981 O          124.2530    33.2980     7.8670 O             1 RES     
   11982 Si         110.7020    30.7490     6.1000 Si            1 RES     
   11983 O          142.6700     5.6730     5.2900 O             1 RES     
   11984 Si         114.2700    49.9640    11.6860 Si            1 RES     
   11985 O          106.6100    21.1300    10.0300 O             1 RES     
   11986 O          149.4510    11.8250    10.8060 O             1 RES     
   11987 O          141.1260    13.8420     9.8870 O             1 RES     
   11988 O          145.6810    15.0260     7.0230 O             1 RES     
   11989 O          146.7460    26.3010     8.8480 O             1 RES     
   11990 O          127.8520    30.1570     5.1630 O             1 RES     
   11991 O          114.0080    16.7380     5.3380 O             1 RES     
   11992 O          127.0560    41.8310     1.9940 O             1 RES     
   11993 Si         113.3490    24.6240     3.2190 Si            1 RES     
   11994 O          125.9020    34.8710     4.4290 O             1 RES     
   11995 O          120.1230     4.8830     4.5910 O             1 RES     
   11996 O          134.1470    15.1210    11.3000 O             1 RES     
   11997 Si         101.3730    22.1510     2.9220 Si            1 RES     
   11998 O          149.7900    25.9860     3.1710 O             1 RES     
   11999 O          132.2150    27.3290     8.7490 O             1 RES     
   12000 O          142.4190    13.5680     5.7240 O             1 RES     
   12001 O          137.2140     5.2770     9.2580 O             1 RES     
   12002 O          140.9980    23.4960     1.5910 O             1 RES     
   12003 OS         100.6460    27.9250    13.3760 OS            1 RES     
   12004 Si         100.8110    19.1590     9.6580 Si            1 RES     
   12005 O          130.5330    18.1760     4.0030 O             1 RES     
   12006 O          141.9850    33.4010     8.8860 O             1 RES     
   12007 O          106.9590    38.8170    12.1150 O             1 RES     
   12008 O          123.5630    28.8290     6.0310 O             1 RES     
   12009 Si         136.8960     6.1620    10.4730 Si            1 RES     
   12010 OS         130.9060    42.8970    12.8760 OS            1 RES     
   12011 O          122.3450    33.7720    10.4280 O             1 RES     
   12012 Si         138.7720    49.4470     3.8340 Si            1 RES     
   12013 Si         120.6320    28.6790    11.6590 Si            1 RES     
   12014 O          129.1060     9.9070     8.0490 O             1 RES     
   12015 O          104.3300    16.1090     6.8260 O             1 RES     
   12016 Si         146.1970     8.4660     8.6420 Si            1 RES     
   12017 O          131.4770    20.9200    10.3250 O             1 RES     
   12018 O          123.6740    13.7090     7.1970 O             1 RES     
   12019 O          125.7850    16.0530    11.2930 O             1 RES     
   12020 Si         125.0720     2.0650    11.2810 Si            1 RES     
   12021 O          106.5130    12.3630    10.0980 O             1 RES     
   12022 O          131.2430    26.1310     6.4910 O             1 RES     
   12023 O          129.5560    43.4330     4.9100 O             1 RES     
   12024 O          105.5290    29.6980     4.5780 O             1 RES     
   12025 Si         112.1290    29.9390     9.9840 Si            1 RES     
   12026 Si         142.9810    42.5610    10.5600 Si            1 RES     
   12027 O          100.0220    14.5270     4.1100 O             1 RES     
   12028 O          127.5270     6.1070     3.8020 O             1 RES     
   12029 O          112.7250     3.7090    12.4850 O             1 RES     
   12030 Si         109.4180     2.8310    10.8570 Si            1 RES     
   12031 O          131.6600    36.1520    10.5500 O             1 RES     
   12032 Si         118.5290    31.0570     7.4200 Si            1 RES     
   12033 OS         122.9530    45.1110    10.9490 OS            1 RES     
   12034 O          147.5310    28.1790     7.5710 O             1 RES     
   12035 O          122.0970     2.9560     3.5790 O             1 RES     
   12036 O          123.9750    47.1680     6.4300 O             1 RES     
   12037 Si         135.6350     7.7970     5.0950 Si            1 RES     
   12038 Si         115.2560    25.1420    10.4270 Si            1 RES     
   12039 O          118.6580    35.0890    10.6360 O             1 RES     
   12040 OS         120.2660    37.5690    13.8000 OS            1 RES     
   12041 O          129.7200    18.0810    12.3670 O             1 RES     
   12042 O          126.0000    19.8770     4.2940 O             1 RES     
   12043 O          141.0400     2.2550     8.1180 O             1 RES     
   12044 Si         126.5050     9.2230     5.5330 Si            1 RES     
   12045 O          136.9120    40.4130    10.7990 O             1 RES     
   12046 O          120.7340    15.2520     4.9050 O             1 RES     
   12047 O          119.4960    18.3400    10.8120 O             1 RES     
   12048 O          122.9330     2.9620     7.0930 O             1 RES     
   12049 OS         146.3160    48.9330    13.3120 OS            1 RES     
   12050 O          125.5590    23.5770     6.4960 O             1 RES     
   12051 O          134.9440    48.6380    11.0810 O             1 RES     
   12052 Si         125.5740    19.7440    11.9030 Si            1 RES     
   12053 O          100.6750    30.5180    10.5840 O             1 RES     
   12054 Si         119.9420     6.1710     7.7720 Si            1 RES     
   12055 Si         123.1990    12.0790     3.8050 Si            1 RES     
   12056 O          130.8380     5.4450     5.9680 O             1 RES     
   12057 O          145.9100     7.5290     7.3860 O             1 RES     
   12058 Si         103.6840    12.8230    12.3480 Si            1 RES     
   12059 OS         118.8100    44.6700    12.2700 OS            1 RES     
   12060 Si         138.0060    11.3040     9.0220 Si            1 RES     
   12061 O          120.9740    36.1480     4.3800 O             1 RES     
   12062 O          133.5230    45.4890     2.9160 O             1 RES     
   12063 Si         109.2410    45.5480     3.3790 Si            1 RES     
   12064 Si         134.3650     5.5360    12.3320 Si            1 RES     
   12065 Si         139.6160    25.8090     3.1450 Si            1 RES     
   12066 O          128.8550    16.9830     8.2740 O             1 RES     
   12067 Si         110.8730    25.4460     9.4090 Si            1 RES     
   12068 OS         102.9380    27.3670    13.5110 OS            1 RES     
   12069 OS         133.3940    45.2420    13.7960 OS            1 RES     
   12070 Si         145.8650    31.8970     2.7980 Si            1 RES     
   12071 O          143.3990     5.4610    10.9030 O             1 RES     
   12072 O          145.3100    32.5620     6.9560 O             1 RES     
   12073 O          121.8170    45.9040     5.1190 O             1 RES     
   12074 O          142.0710    47.7170     9.4400 O             1 RES     
   12075 Si         135.4420    32.0520     7.3890 Si            1 RES     
   12076 O          145.1310    14.1860     9.3770 O             1 RES     
   12077 O          113.7230     1.3210    12.2550 O             1 RES     
   12078 O          128.4180    12.2310     8.3410 O             1 RES     
   12079 O          148.1150     3.6560     3.2300 O             1 RES     
   12080 O          124.3630    21.2010     2.9820 O             1 RES     
   12081 Si         100.4750    39.2730     4.6870 Si            1 RES     
   12082 Si         149.8290    17.2240    12.6160 Si            1 RES     
   12083 O          111.8830    42.9360     5.5030 O             1 RES     
   12084 O          148.1000    18.5900     5.2710 O             1 RES     
   12085 Si         113.5760    45.1310     8.3190 Si            1 RES     
   12086 O          107.9420    29.6150     8.5510 O             1 RES     
   12087 O          119.4490    16.2870     9.2650 O             1 RES     
   12088 O          121.8720    33.0660     6.7000 O             1 RES     
   12089 Si         128.1680    32.5160     7.8900 Si            1 RES     
   12090 O          109.3260    14.7530     6.8240 O             1 RES     
   12091 Si         133.4080    23.7200     8.8770 Si            1 RES     
   12092 O          122.0920    20.6210     7.5910 O             1 RES     
   12093 O          103.4620     6.4040    10.5250 O             1 RES     
   12094 Si         137.3120    24.5400    11.4470 Si            1 RES     
   12095 O          126.2140    25.8960    11.8030 O             1 RES     
   12096 Si         139.0690    17.2800     3.3630 Si            1 RES     
   12097 O          138.6180    34.2620     4.5350 O             1 RES     
   12098 Si         137.6040    34.2130     3.3530 Si            1 RES     
   12099 O          100.7970    42.5890     7.7990 O             1 RES     
   12100 O          122.2110    13.2820     3.8790 O             1 RES     
   12101 O          103.3010    42.0190     7.2270 O             1 RES     
   12102 O          142.6960    40.5310     3.8590 O             1 RES     
   12103 Si         117.0000     5.1450     8.0970 Si            1 RES     
   12104 O          147.1890    25.8760     6.4000 O             1 RES     
   12105 O          142.6210    18.3830    10.7470 O             1 RES     
   12106 O          108.0760    15.1190     4.6190 O             1 RES     
   12107 Si         145.0950    38.4250    10.3500 Si            1 RES     
   12108 O          145.8150     0.0320     1.4580 O             1 RES     
   12109 Si         112.9980    31.8610     7.7030 Si            1 RES     
   12110 O          118.4430    18.7220     8.4660 O             1 RES     
   12111 O          124.4370    16.7460     6.5860 O             1 RES     
   12112 Si         114.9540    12.9100     6.0530 Si            1 RES     
   12113 O          114.9650    18.7910     9.9840 O             1 RES     
   12114 Si         124.7280    26.1950    11.4530 Si            1 RES     
   12115 O          147.3630    32.9210     8.3330 O             1 RES     
   12116 O          132.0960    16.7640    11.4900 O             1 RES     
   12117 O          134.8860    47.1780    12.9650 O             1 RES     
   12118 O          112.7500    15.3170     3.5650 O             1 RES     
   12119 O          135.1600    41.7720     5.1760 O             1 RES     
   12120 O          146.3020    43.3040     9.1230 O             1 RES     
   12121 O          121.4630    14.5980     8.6160 O             1 RES     
   12122 O          138.8250    47.9060     3.5560 O             1 RES     
   12123 O          133.4650     1.9990     3.7860 O             1 RES     
   12124 O          127.3030    14.6550     8.4230 O             1 RES     
   12125 O          124.3010    27.5890    11.8080 O             1 RES     
   12126 O          118.4060    47.3430    11.6440 O             1 RES     
   12127 O          106.4100    19.6400     5.3440 O             1 RES     
   12128 O          119.7470    28.5850    12.9640 O             1 RES     
   12129 Si         148.5780    19.7920     6.0330 Si            1 RES     
   12130 Si         113.2120     6.2720     4.4060 Si            1 RES     
   12131 Si         138.8670    43.7710     3.9090 Si            1 RES     
   12132 O          116.1730    35.9180     6.1790 O             1 RES     
   12133 Si         146.9800     2.9410     3.9820 Si            1 RES     
   12134 O          116.4210    48.9450     5.2640 O             1 RES     
   12135 OS         149.7980    38.4060    12.4830 OS            1 RES     
   12136 Si         128.4320     0.9860     9.0180 Si            1 RES     
   12137 O          103.7910    19.2340    12.2220 O             1 RES     
   12138 Si         137.3810    14.3720     9.2660 Si            1 RES     
   12139 O          139.6090    17.1140     4.7570 O             1 RES     
   12140 O          118.9850    23.2030     4.9360 O             1 RES     
   12141 O          133.3830    29.5890     8.6530 O             1 RES     
   12142 Si         106.5040    34.3540     3.6440 Si            1 RES     
   12143 O          110.6390    41.7210    12.3230 O             1 RES     
   12144 Si         121.8010    23.4750    10.1490 Si            1 RES     
   12145 O          132.1880     2.9370    11.0530 O             1 RES     
   12146 O          148.2850    37.1040     8.2830 O             1 RES     
   12147 OS         141.0400     2.3510    12.7430 OS            1 RES     
   12148 Si         123.6110    42.4730     6.8000 Si            1 RES     
   12149 Si         139.1900    24.7630     8.9630 Si            1 RES     
   12150 OS         123.5860    47.4960    12.0860 OS            1 RES     
   12151 OS         135.6550    44.6830    12.9390 OS            1 RES     
   12152 O          138.8090    10.5150     5.0240 O             1 RES     
   12153 Si         107.5450    17.4300    12.2700 Si            1 RES     
   12154 O          111.9280    10.0130     4.3980 O             1 RES     
   12155 O          147.4460    12.9720    12.0550 O             1 RES     
   12156 O          116.4350     1.3450     6.4240 O             1 RES     
   12157 Si         110.3130    11.8920    10.4020 Si            1 RES     
   12158 O          123.7810    46.8420     3.9060 O             1 RES     
   12159 OS         132.3080    40.5490    13.5250 OS            1 RES     
   12160 Si         114.6130    39.8490    10.8620 Si            1 RES     
   12161 OS         123.8970    25.3580    12.4800 OS            1 RES     
   12162 Si         109.0190     4.2510     4.0900 Si            1 RES     
   12163 O          125.1120    14.6520     5.4390 O             1 RES     
   12164 Si         144.0140    36.7140     7.7550 Si            1 RES     
   12165 OS         148.1550    10.7840    12.7930 OS            1 RES     
   12166 OS         114.5800    10.1050    13.9600 OS            1 RES     
   12167 OS         130.2540    15.4520    12.2440 OS            1 RES     
   12168 O          115.1430    39.4530     9.4470 O             1 RES     
   12169 Si         126.1430     3.1790     5.5820 Si            1 RES     
   12170 O          100.4530     3.1480     6.2690 O             1 RES     
   12171 O          146.8350    49.3910    10.9860 O             1 RES     
   12172 O          104.0590    36.5990     8.4880 O             1 RES     
   12173 Si         121.9700    14.8470     4.0010 Si            1 RES     
   12174 Si         105.4830    21.8870    10.9520 Si            1 RES     
   12175 O          112.9610    16.0130    12.0790 O             1 RES     
   12176 Si         118.5110    45.7810    11.1700 Si            1 RES     
   12177 O          126.1120     6.5300    13.1560 O             1 RES     
   12178 O          128.9550    11.6580     3.8450 O             1 RES     
   12179 O          116.8570     4.4800     9.5660 O             1 RES     
   12180 O          112.2070    31.3180     6.4880 O             1 RES     
   12181 Si         103.6610    47.9890     3.2660 Si            1 RES     
   12182 O          102.3810    38.3960     9.2630 O             1 RES     
   12183 O          116.4770    43.0330     5.4360 O             1 RES     
   12184 O          108.4010    37.8400     9.9930 O             1 RES     
   12185 Si         135.2360    26.0960     9.8200 Si            1 RES     
   12186 OS         141.6370    48.2940    12.0470 OS            1 RES     
   12187 O          128.3920    45.5220     9.3080 O             1 RES     
   12188 Si         108.7650     9.9060     8.6400 Si            1 RES     
   12189 Si         131.1860    40.2060     4.6190 Si            1 RES     
   12190 O          133.9620     9.7730    11.3540 O             1 RES     
   12191 Si         129.9290    38.9810    11.4220 Si            1 RES     
   12192 O          146.4470    45.4640     8.5700 O             1 RES     
   12193 O          103.8460    49.6770    12.4230 O             1 RES     
   12194 O          111.9350    26.3070    10.1220 O             1 RES     
   12195 O          134.7310    37.0780     7.2970 O             1 RES     
   12196 O          109.9940    32.7270     3.7510 O             1 RES     
   12197 OS         145.7050    12.9940    13.9360 OS            1 RES     
   12198 Si         118.4620    19.7870     7.3990 Si            1 RES     
   12199 O          111.2240    35.5340     6.4810 O             1 RES     
   12200 O          143.9110    10.6470     6.2750 O             1 RES     
   12201 O          145.5200    36.9650     7.4450 O             1 RES     
   12202 O          142.3600    47.1630     6.9220 O             1 RES     
   12203 Si         138.2540    43.6100     8.9210 Si            1 RES     
   12204 O          103.3950    11.3600    11.7150 O             1 RES     
   12205 Si         106.1610     4.5190     2.9570 Si            1 RES     
   12206 Si         135.9990     4.7990     5.4630 Si            1 RES     
   12207 O          140.4460     8.8940    11.2490 O             1 RES     
   12208 Si         136.3780     8.7640     9.1110 Si            1 RES     
   12209 Si         101.8180    27.6390    12.3530 Si            1 RES     
   12210 OS         147.8010    37.1470    12.8070 OS            1 RES     
   12211 OS         111.1920    45.1340    13.1630 OS            1 RES     
   12212 O          148.1120    47.4380    10.4120 O             1 RES     
   12213 O          139.5130    20.8610     8.2070 O             1 RES     
   12214 O          126.4280    34.1630    11.4740 O             1 RES     
   12215 Si         133.3770     3.5300     3.4640 Si            1 RES     
   12216 O          116.2090    28.5900     2.5190 O             1 RES     
   12217 O          136.1180    48.2970     8.6890 O             1 RES     
   12218 O          146.7490    17.9500     3.0500 O             1 RES     
   12219 O          141.6860    42.9810     6.6740 O             1 RES     
   12220 O          137.4760    12.5040     5.3120 O             1 RES     
   12221 Si         124.7900    13.2300     6.2040 Si            1 RES     
   12222 OS         138.1530     4.6200    13.3710 OS            1 RES     
   12223 O          109.6770    32.6350    11.3050 O             1 RES     
   12224 Si         133.9690    22.8690     3.4780 Si            1 RES     
   12225 O          143.9820    37.9620     9.3120 O             1 RES     
   12226 Si         112.2740    34.9140     7.4100 Si            1 RES     
   12227 O          125.0010    18.4920    11.1670 O             1 RES     
   12228 O          102.7600    24.2130    10.4020 O             1 RES     
   12229 O          142.9580    26.1660    11.8200 O             1 RES     
   12230 O          145.1440    14.4450    11.7480 O             1 RES     
   12231 Si         140.0110    39.8830     8.6920 Si            1 RES     
   12232 OS         104.8870    30.6080    12.7110 OS            1 RES     
   12233 O          136.7400    29.8300     5.2550 O             1 RES     
   12234 Si         116.6150    44.7830     8.8650 Si            1 RES     
   12235 O          114.1100    11.8590     9.6930 O             1 RES     
   12236 O          102.0850    44.1560     6.4310 O             1 RES     
   12237 Si         139.0470    45.4520    11.2560 Si            1 RES     
   12238 Si         146.1120    42.6170    10.5030 Si            1 RES     
   12239 Si         115.9470     2.3680     7.5480 Si            1 RES     
   12240 O          109.2800    23.5000     7.5290 O             1 RES     
   12241 OS         140.7000    34.4120    12.2590 OS            1 RES     
   12242 OS         137.3970    49.2820    10.3440 OS            1 RES     
   12243 O          127.2990     9.9210     4.3170 O             1 RES     
   12244 O          147.5000    17.2100     9.6140 O             1 RES     
   12245 O          110.7770    40.0520     8.7900 O             1 RES     
   12246 Si         124.9320    24.8970     5.9010 Si            1 RES     
   12247 Si         146.2280    36.8130    12.7060 Si            1 RES     
   12248 OS         117.5710     7.1020    13.6460 OS            1 RES     
   12249 O          103.9580    31.7320     3.9260 O             1 RES     
   12250 O          130.0340    48.1820     5.4990 O             1 RES     
   12251 Si         102.3960     0.3410    12.1610 Si            1 RES     
   12252 Si         101.3740    24.8670    10.7920 Si            1 RES     
   12253 O          132.8560    14.0160     5.4360 O             1 RES     
   12254 O          105.0360    32.8140    11.2680 O             1 RES     
   12255 O          104.3950     1.0660     5.6080 O             1 RES     
   12256 Si         111.4700    14.6680     9.6650 Si            1 RES     
   12257 O          145.4260    12.4360     7.7160 O             1 RES     
   12258 Si         139.5160    33.9090    11.3150 Si            1 RES     
   12259 O          142.7260    45.9040    11.9400 O             1 RES     
   12260 OS         121.7830     5.7500    13.3060 OS            1 RES     
   12261 O          103.4140    40.7410     9.3500 O             1 RES     
   12262 O          134.3490    32.3610     3.7950 O             1 RES     
   12263 OS         104.0670    45.7170    13.0380 OS            1 RES     
   12264 O          116.5320    25.6030    11.2150 O             1 RES     
   12265 O          108.3430    40.2150     9.8420 O             1 RES     
   12266 O          104.0360    25.3720     8.7120 O             1 RES     
   12267 O          130.6800    45.8030     9.3590 O             1 RES     
   12268 O          110.0900    10.7120     6.1550 O             1 RES     
   12269 O          119.1940    17.1920     5.2050 O             1 RES     
   12270 O          137.1160    48.2080    12.3700 O             1 RES     
   12271 Si         111.3670    16.3290    12.1810 Si            1 RES     
   12272 O          135.5170    49.9290     1.5800 O             1 RES     
   12273 O          103.1960    13.4610     3.7560 O             1 RES     
   12274 O          104.0060    30.3250     6.5690 O             1 RES     
   12275 O          139.3020     0.3220     2.5230 O             1 RES     
   12276 Si         139.5480    34.3190     5.9030 Si            1 RES     
   12277 Si         119.5940    18.6870     4.7920 Si            1 RES     
   12278 OS         115.5400    11.8900    12.5810 OS            1 RES     
   12279 Si         103.2760    22.0430     6.8940 Si            1 RES     
   12280 O          104.7160    44.8320     2.2930 O             1 RES     
   12281 Si         116.4430     3.1290    10.4140 Si            1 RES     
   12282 O          134.7450    20.4650     6.8190 O             1 RES     
   12283 O          142.7410    49.4860     7.9210 O             1 RES     
   12284 O          109.6600    25.8890     8.2980 O             1 RES     
   12285 Si         114.1900    40.4600     5.9330 Si            1 RES     
   12286 O          102.1890     7.9920     5.7940 O             1 RES     
   12287 O          109.6740     3.0890     7.3500 O             1 RES     
   12288 Si         145.4850     2.3080     9.1260 Si            1 RES     
   12289 O          134.5530     1.7420     7.1130 O             1 RES     
   12290 Si         147.6950    46.8240     4.1620 Si            1 RES     
   12291 O          109.0940    31.8780     9.0570 O             1 RES     
   12292 O          132.8540    11.6640    10.2560 O             1 RES     
   12293 O          139.9370    12.6720     5.1830 O             1 RES     
   12294 O          142.7870     7.5880     3.9020 O             1 RES     
   12295 OS         141.5110    44.6970    13.8950 OS            1 RES     
   12296 Si         103.5110    26.4870     7.6910 Si            1 RES     
   12297 OS         128.0830    19.4000    14.1250 OS            1 RES     
   12298 Si         145.3360    48.4560     5.2530 Si            1 RES     
   12299 O          115.0890    16.2570    10.7830 O             1 RES     
   12300 O          101.7470    25.2300     4.6450 O             1 RES     
   12301 O          120.2430    49.6870    11.9420 O             1 RES     
   12302 Si         101.9550    42.6290     6.7790 Si            1 RES     
   12303 Si         121.5380     3.5220     7.4470 Si            1 RES     
   12304 O          117.2980    45.0130    10.2930 O             1 RES     
   12305 O          114.1450    39.2150     6.8920 O             1 RES     
   12306 O          110.4990    19.3050     7.6740 O             1 RES     
   12307 Si         114.9070     7.2060     6.9330 Si            1 RES     
   12308 Si         128.6810    25.7310     9.3460 Si            1 RES     
   12309 O          135.3300    30.3750     2.9760 O             1 RES     
   12310 Si         108.6830    43.2050     7.6990 Si            1 RES     
   12311 O          114.0870    29.7210     3.3030 O             1 RES     
   12312 O          133.0820    22.8120    10.2330 O             1 RES     
   12313 O          147.5190    36.2220     3.8790 O             1 RES     
   12314 Si         128.5250     6.5820    10.1990 Si            1 RES     
   12315 O          110.7470    36.0950    11.4710 O             1 RES     
   12316 Si         147.4500    17.4220     4.3660 Si            1 RES     
   12317 O          128.1610    15.8470     6.3670 O             1 RES     
   12318 OS         101.1650    22.8170    14.2730 OS            1 RES     
   12319 O          144.8110     0.9100     8.5730 O             1 RES     
   12320 O          118.5750    27.3960     6.6910 O             1 RES     
   12321 O          126.1090     3.3020     3.9990 O             1 RES     
   12322 Si         142.6060    34.7230     9.4340 Si            1 RES     
   12323 Si         145.3720    10.9610     7.0310 Si            1 RES     
   12324 O          122.5860    29.5690     3.9380 O             1 RES     
   12325 Si         140.2970    31.3540     6.4800 Si            1 RES     
   12326 Si         106.0960    33.9830    10.8440 Si            1 RES     
   12327 O          112.7440    30.9830     8.8940 O             1 RES     
   12328 OS         146.1210     1.2430    12.8700 OS            1 RES     
   12329 O          126.2930    30.5420     3.2220 O             1 RES     
   12330 O          107.8820    24.5560     9.3200 O             1 RES     
   12331 O          127.0360    22.2950     8.3600 O             1 RES     
   12332 O          125.2950     0.7040    10.3780 O             1 RES     
   12333 Si         124.9280    17.5040     7.8380 Si            1 RES     
   12334 O          148.6180     4.1440    10.7340 O             1 RES     
   12335 O          125.6520    28.5460     7.8160 O             1 RES     
   12336 O          119.8470    24.9840     6.4890 O             1 RES     
   12337 Si         141.6370    12.8030    10.9200 Si            1 RES     
   12338 Si         135.3520     1.3890    12.1150 Si            1 RES     
   12339 Si         146.8970    37.7350     7.7620 Si            1 RES     
   12340 O          105.3780    35.8640     6.8210 O             1 RES     
   12341 O          145.1740    27.8150     2.8680 O             1 RES     
   12342 Si         143.8770    27.3760    11.5510 Si            1 RES     
   12343 Si         112.5270     8.5340     8.2720 Si            1 RES     
   12344 O          103.5620    28.0480     7.7900 O             1 RES     
   12345 O          105.2150    22.8920     2.7460 O             1 RES     
   12346 O          146.5290    22.0670     9.2400 O             1 RES     
   12347 Si         113.1480    15.3560     5.0550 Si            1 RES     
   12348 O          124.9450    29.7810    11.9010 O             1 RES     
   12349 O          100.0590    17.7840     9.3110 O             1 RES     
   12350 O          119.1170    13.8090     9.2550 O             1 RES     
   12351 O          104.0670    37.3420     4.9070 O             1 RES     
   12352 O          136.9140    10.2500     9.4460 O             1 RES     
   12353 O          135.5640     6.3480     5.5660 O             1 RES     
   12354 OS         129.1860    38.1350    12.6570 OS            1 RES     
   12355 Si         131.8730    37.3300     3.6020 Si            1 RES     
   12356 O          142.7740     3.8650     8.6890 O             1 RES     
   12357 O          149.9610    33.5230     2.2830 O             1 RES     
   12358 O          136.2550    26.7060     8.7730 O             1 RES     
   12359 Si         114.0130    15.1700    11.1740 Si            1 RES     
   12360 OS         103.7870    16.7630    12.8830 OS            1 RES     
   12361 Si         148.5450     5.0490    12.0960 Si            1 RES     
   12362 O          140.6880    22.2130     4.0540 O             1 RES     
   12363 O          114.5790    32.1970     7.4600 O             1 RES     
   12364 O          140.8770    38.5600     8.8240 O             1 RES     
   12365 Si         130.0510    19.2360     5.0320 Si            1 RES     
   12366 O          132.2550     8.4950     2.8570 O             1 RES     
   12367 O          145.1300    32.9420     1.8010 O             1 RES     
   12368 Si         106.2410    43.4290     9.5200 Si            1 RES     
   12369 Si         126.1320    27.2990     4.2450 Si            1 RES     
   12370 O          139.7030    43.2250     8.3650 O             1 RES     
   12371 O          108.5980    46.3720     2.2240 O             1 RES     
   12372 Si         134.6490     3.1510     7.7220 Si            1 RES     
   12373 O          115.1550    11.3100     5.9300 O             1 RES     
   12374 Si         105.3720    10.0700     4.4590 Si            1 RES     
   12375 O          142.3490     7.4910    12.1660 O             1 RES     
   12376 O          115.4210    40.4660    12.0290 O             1 RES     
   12377 O          105.0060     4.4480     4.0530 O             1 RES     
   12378 O          119.4280    45.2850     5.8050 O             1 RES     
   12379 O          144.4440    46.5930    10.0370 O             1 RES     
   12380 O          149.3310    32.3570     9.5320 O             1 RES     
   12381 O          130.1120    26.0840     8.9200 O             1 RES     
   12382 O          110.4160     1.0990     2.8170 O             1 RES     
   12383 O          105.6430    34.8800     9.6260 O             1 RES     
   12384 O          110.6130    29.6900     9.5080 O             1 RES     
   12385 O          138.9430    30.5190     6.3560 O             1 RES     
   12386 O          110.5100     8.1880     5.4640 O             1 RES     
   12387 O          118.0080    49.7870    12.4920 O             1 RES     
   12388 O          129.9750    18.5390     6.4630 O             1 RES     
   12389 Si         143.5010     6.3350    12.2980 Si            1 RES     
   12390 O          131.0460    33.8030     5.5130 O             1 RES     
   12391 O          108.9270    11.8520    11.1040 O             1 RES     
   12392 O          122.6540     0.6510     6.3860 O             1 RES     
   12393 O          145.1230    32.2190     9.7350 O             1 RES     
   12394 O          115.4250     8.6330     6.4840 O             1 RES     
   12395 O          124.3040    33.2740     3.2250 O             1 RES     
   12396 O          149.8890    13.0660     8.7600 O             1 RES     
   12397 Si         108.1590    11.0630     5.8820 Si            1 RES     
   12398 Si         109.7230     6.6800    12.0750 Si            1 RES     
   12399 Si         128.4790     8.4120     7.7260 Si            1 RES     
   12400 Si         100.5120     7.5370    12.0020 Si            1 RES     
   12401 O          109.6710     5.6550     4.5980 O             1 RES     
   12402 O          147.4550    13.8010     8.3070 O             1 RES     
   12403 O          118.8750    25.6890    11.5620 O             1 RES     
   12404 Si         109.6420    29.2860     3.6580 Si            1 RES     
   12405 O          106.7420    27.7270     7.4510 O             1 RES     
   12406 Si         107.3690    11.2960    10.8940 Si            1 RES     
   12407 Si         130.6730    32.5360     9.5370 Si            1 RES     
   12408 O          112.3410    33.3180     7.6750 O             1 RES     
   12409 Si         105.5320    36.0130     8.4250 Si            1 RES     
   12410 Si         123.0290    43.0570    11.1760 Si            1 RES     
   12411 Si         140.9590     8.1710     7.5530 Si            1 RES     
   12412 OS         119.6480    48.2890    13.7740 OS            1 RES     
   12413 O          134.4150    22.6970     5.0520 O             1 RES     
   12414 O          121.5930     3.0260     9.0560 O             1 RES     
   12415 Si         135.2580    14.0110    11.5060 Si            1 RES     
   12416 O          115.8700    32.0780     9.6110 O             1 RES     
   12417 O          127.1660    18.1990     2.9840 O             1 RES     
   12418 O          102.9420    29.6550     4.5650 O             1 RES     
   12419 Si         141.6730    43.7280     5.2710 Si            1 RES     
   12420 O          139.1920     0.5770     7.9150 O             1 RES     
   12421 O          112.7510    19.8360     9.1320 O             1 RES     
   12422 O          121.9460    42.2760    10.3200 O             1 RES     
   12423 O          114.1980    38.2730     2.9000 O             1 RES     
   12424 O          129.3360    32.1020     8.8840 O             1 RES     
   12425 O          149.7930    10.4860     8.6050 O             1 RES     
   12426 O          126.2920    12.6820     9.6340 O             1 RES     
   12427 O          109.8200    25.0990    10.5220 O             1 RES     
   12428 Si         127.4390    19.6000     3.5680 Si            1 RES     
   12429 O          106.6230    14.8530     6.6910 O             1 RES     
   12430 O          108.6230    49.0540    10.4420 O             1 RES     
   12431 O          144.8180    26.8060    10.4470 O             1 RES     
   12432 O          111.7380     9.5000     1.6330 O             1 RES     
   12433 O          147.2400    46.8150     2.7000 O             1 RES     
   12434 O          134.5170    24.8560     9.2050 O             1 RES     
   12435 O          120.2360     9.1000    10.6340 O             1 RES     
   12436 OS         132.3420    21.8730    12.6260 OS            1 RES     
   12437 Si         125.7150    41.7100     2.8710 Si            1 RES     
   12438 O          134.9960    19.4610     9.2060 O             1 RES     
   12439 Si         141.4990    19.5180    11.1150 Si            1 RES     
   12440 Si         115.2730    10.2900    12.5260 Si            1 RES     
   12441 O          136.2120    18.2560     7.4380 O             1 RES     
   12442 O          129.3970    36.5730     9.2700 O             1 RES     
   12443 O          105.0300    23.2810    10.2570 O             1 RES     
   12444 Si         100.3920    42.2210     4.1890 Si            1 RES     
   12445 O          102.2260    26.4020     2.4270 O             1 RES     
   12446 O          149.4230    18.8260    12.6940 O             1 RES     
   12447 O          127.1160    27.9850     5.1480 O             1 RES     
   12448 Si         108.2650    40.9430     4.4180 Si            1 RES     
   12449 O          141.1300    22.0980     6.6650 O             1 RES     
   12450 O          145.5570    31.9600     4.3400 O             1 RES     
   12451 O          100.1660    19.6860     6.1490 O             1 RES     
   12452 Si         133.2720     8.2920    11.3850 Si            1 RES     
   12453 O          122.7000     0.6170     4.0170 O             1 RES     
   12454 O          113.0960    47.7250     5.9260 O             1 RES     
   12455 Si         122.7790     1.7000     2.8520 Si            1 RES     
   12456 O          116.3630    13.3470     5.6630 O             1 RES     
   12457 O          130.9870    48.2450    10.0420 O             1 RES     
   12458 O          137.2390    49.7590     3.5030 O             1 RES     
   12459 Si         130.8900    16.7310     3.3720 Si            1 RES     
   12460 O          126.4990    44.3450     9.2110 O             1 RES     
   12461 O          149.2220    26.2600     7.9750 O             1 RES     
   12462 O          103.4010    39.1840    11.4160 O             1 RES     
   12463 O          133.9070    31.6450     7.3760 O             1 RES     
   12464 O          143.4510    15.8270    10.1300 O             1 RES     
   12465 Si         146.0430    25.0580     5.6030 Si            1 RES     
   12466 O          101.8810    26.1950     7.7000 O             1 RES     
   12467 O          117.3560     2.2180    11.3970 O             1 RES     
   12468 O          107.1550    17.3080     4.0380 O             1 RES     
   12469 Si         142.4350    10.2010     5.9260 Si            1 RES     
   12470 Si         140.6900     3.0210    11.3890 Si            1 RES     
   12471 O          119.3480     0.7980     2.3270 O             1 RES     
   12472 O          119.9280    29.8800    10.9250 O             1 RES     
   12473 O          119.4570    20.9430     7.8900 O             1 RES     
   12474 O          110.7040    13.2600     9.7220 O             1 RES     
   12475 Si         100.4770     1.6020     5.9420 Si            1 RES     
   12476 O          109.4100     1.3120    10.7100 O             1 RES     
   12477 Si         118.7360    17.6360     9.5480 Si            1 RES     
   12478 O          105.7520    47.8330    12.9800 O             1 RES     
   12479 O          119.8340     7.1440     8.9810 O             1 RES     
   12480 Si         118.1230     8.5540     3.6600 Si            1 RES     
   12481 Si         108.9940    33.1040    10.0430 Si            1 RES     
   12482 O          135.6350    37.2760     4.9160 O             1 RES     
   12483 O          143.9320    30.7370     6.0400 O             1 RES     
   12484 Si         110.3410    36.8300     3.1460 Si            1 RES     
   12485 OS         130.0060    34.1070    13.8750 OS            1 RES     
   12486 OS         133.7480    33.1240    13.3250 OS            1 RES     
   12487 Si         107.3310    43.7630     4.9050 Si            1 RES     
   12488 O          112.4480    23.4040     3.5910 O             1 RES     
   12489 O          146.8580    41.0190     2.4920 O             1 RES     
   12490 Si         111.1820    20.0760     8.8680 Si            1 RES     
   12491 O          132.3270    36.7830     2.1510 O             1 RES     
   12492 Si         126.8970    32.7770    12.0530 Si            1 RES     
   12493 O          131.1770    38.7570     3.8720 O             1 RES     
   12494 O          142.7610    36.9040     6.8720 O             1 RES     
   12495 O          100.1790    45.8030    11.0080 O             1 RES     
   12496 O          114.9690    39.8680     4.7060 O             1 RES     
   12497 Si         126.2080    35.7160    11.4330 Si            1 RES     
   12498 O          133.8200     1.8110    12.2470 O             1 RES     
   12499 O          132.2410    24.6310     8.4590 O             1 RES     
   12500 O          144.9250     6.9980    12.2900 O             1 RES     
   12501 Si         110.0470     6.9750     9.0140 Si            1 RES     
   12502 O          104.9290    13.9990     8.3470 O             1 RES     
   12503 Si         123.0970    34.0080     6.9800 Si            1 RES     
   12504 O          135.3680    49.2480     6.6070 O             1 RES     
   12505 O          138.6330     3.1870     8.2330 O             1 RES     
   12506 O          109.6790    38.1050     2.4130 O             1 RES     
   12507 O          124.3640    25.9410     9.8980 O             1 RES     
   12508 Si         101.3860     4.4330     6.3760 Si            1 RES     
   12509 O          136.0720    25.4030    10.9870 O             1 RES     
   12510 Si         133.3970     0.4560     4.1020 Si            1 RES     
   12511 O          147.7770    45.4010     4.5940 O             1 RES     
   12512 O          149.6460     0.9140     7.0600 O             1 RES     
   12513 Si         149.7490    42.7510     8.8430 Si            1 RES     
   12514 OS         147.7090    20.8010    12.2820 OS            1 RES     
   12515 O          121.0710     5.0660     7.7670 O             1 RES     
   12516 Si         117.6200     8.2770    12.5210 Si            1 RES     
   12517 O          123.8990     8.0890     8.4830 O             1 RES     
   12518 O          144.9940     6.8110     5.0230 O             1 RES     
   12519 O          138.3840    27.7090     9.6910 O             1 RES     
   12520 Si         102.3000    49.5910     9.1770 Si            1 RES     
   12521 O          111.0760    17.9080    12.0650 O             1 RES     
   12522 Si         102.4870    45.5200     5.7490 Si            1 RES     
   12523 O          105.1070    13.1130     2.0220 O             1 RES     
   12524 O          117.3130    17.3870    10.0950 O             1 RES     
   12525 O          138.8030    18.8680     3.1010 O             1 RES     
   12526 O          133.8930    37.3990    11.2720 O             1 RES     
   12527 OS         135.5880    37.9490    13.8270 OS            1 RES     
   12528 O          105.7350    22.1460    12.4840 O             1 RES     
   12529 Si         130.0550    20.4620     9.8690 Si            1 RES     
   12530 O          106.6910    21.9270     4.9560 O             1 RES     
   12531 O          117.7340    21.6430     3.5230 O             1 RES     
   12532 O          119.7000    45.8050    10.1940 O             1 RES     
   12533 O          121.0350    10.2870     8.9720 O             1 RES     
   12534 Si         100.3040    11.6260     9.5100 Si            1 RES     
   12535 Si         147.8920    39.8850     5.9730 Si            1 RES     
   12536 Si         125.8660    44.0270    10.5700 Si            1 RES     
   12537 O          103.1940     0.0020     7.9500 O             1 RES     
   12538 O          133.6470    34.4260     4.8550 O             1 RES     
   12539 Si         130.7270    42.4020     8.4770 Si            1 RES     
   12540 Si         134.7700    37.8690     3.8180 Si            1 RES     
   12541 O          100.9940    10.8450     2.6310 O             1 RES     
   12542 O          129.2810    20.1280    11.1720 O             1 RES     
   12543 O          115.4150     7.7660     1.5950 O             1 RES     
   12544 O          118.3850    35.8390     4.7270 O             1 RES     
   12545 Si         145.2900    25.8680     9.3100 Si            1 RES     
   12546 Si         142.5050    22.3130    10.4510 Si            1 RES     
   12547 Si         115.7320    29.5360     3.7050 Si            1 RES     
   12548 Si         109.6690    47.8430     5.4930 Si            1 RES     
   12549 O          112.3740    48.9220     8.1810 O             1 RES     
   12550 O          124.6360     0.9360     7.9300 O             1 RES     
   12551 O          119.8080     3.0050     3.2320 O             1 RES     
   12552 O          135.4430     0.0010    12.9260 O             1 RES     
   12553 O          106.8130    27.9240     9.9120 O             1 RES     
   12554 O          136.6000    38.8690     6.7020 O             1 RES     
   12555 Si         110.1060    19.0830    11.7060 Si            1 RES     
   12556 O          119.5560    15.3870     7.1320 O             1 RES     
   12557 O          113.4780    47.4240     3.3610 O             1 RES     
   12558 OS         133.1620    11.7520    13.1050 OS            1 RES     
   12559 O          110.6930    26.6800     1.2410 O             1 RES     
   12560 O          122.8730    22.8310    11.1670 O             1 RES     
   12561 O          111.8470    21.1590     4.2940 O             1 RES     
   12562 Si         121.9760    12.3940    12.3550 Si            1 RES     
   12563 O          112.8560     9.6200     9.3420 O             1 RES     
   12564 Si         115.5080    38.7700     3.6850 Si            1 RES     
   12565 O          137.2780    42.6790     9.7680 O             1 RES     
   12566 O          108.5470    10.3990     4.4330 O             1 RES     
   12567 O          104.3780    46.6300     8.9120 O             1 RES     
   12568 O          129.9050    45.6210     6.1860 O             1 RES     
   12569 Si         133.6080    14.0500     6.7690 Si            1 RES     
   12570 O          106.9040    14.7780     2.4800 O             1 RES     
   12571 O          117.7290    46.9900     5.8550 O             1 RES     
   12572 O          113.0630     2.0570     5.8520 O             1 RES     
   12573 O          114.9550    20.6690     8.2220 O             1 RES     
   12574 O          126.1070    41.4050     4.3750 O             1 RES     
   12575 O          126.7350    26.8440     2.9100 O             1 RES     
   12576 O          130.0560     2.9350     5.7890 O             1 RES     
   12577 O          145.2980    21.2120     4.8160 O             1 RES     
   12578 O          109.9770    10.8910     9.1250 O             1 RES     
   12579 Si         115.7720    32.3240    11.1840 Si            1 RES     
   12580 O          125.9570    32.4380     4.9530 O             1 RES     
   12581 O          149.6260    38.0500     4.0950 O             1 RES     
   12582 Si         127.7560    22.5190     3.0090 Si            1 RES     
   12583 O          106.1310    18.0340    12.6980 O             1 RES     
   12584 Si         129.6580    12.5070     4.9570 Si            1 RES     
   12585 Si         120.6900     3.4160     4.4270 Si            1 RES     
   12586 O          118.0140    37.6140     6.4480 O             1 RES     
   12587 Si         107.4400    49.6480     6.7860 Si            1 RES     
   12588 O          111.4600    42.1930     3.2080 O             1 RES     
   12589 O          107.4840    42.2850     4.2520 O             1 RES     
   12590 O          120.4090    41.3470     8.5420 O             1 RES     
   12591 O          127.7690    15.8050     3.7780 O             1 RES     
   12592 O          120.8050    22.5490     6.6200 O             1 RES     
   12593 O          147.1940     9.1690     3.9050 O             1 RES     
   12594 O          143.1990    32.2580    11.8910 O             1 RES     
   12595 OS         102.5250     1.7930    12.7490 OS            1 RES     
   12596 O          115.8720    31.1240     3.5680 O             1 RES     
   12597 OS         136.9670    23.0980    12.0190 OS            1 RES     
   12598 O          124.6860     5.7720     8.6550 O             1 RES     
   12599 Si         103.3320    17.0320     2.8190 Si            1 RES     
   12600 O          146.1960    19.5610     9.2260 O             1 RES     
   12601 O          104.2990    11.6510     9.3740 O             1 RES     
   12602 Si         143.9040    20.4480     4.8120 Si            1 RES     
   12603 O          124.8680    35.8760    12.2940 O             1 RES     
   12604 O          123.6580    18.9010     3.6840 O             1 RES     
   12605 Si         114.1220    37.2970    12.4430 Si            1 RES     
   12606 Si         148.3240     3.2150     9.4960 Si            1 RES     
   12607 O          108.7600    45.0380    12.2370 O             1 RES     
   12608 Si         135.3480    34.2110     9.5120 Si            1 RES     
   12609 Si         147.0210     0.0510    12.4420 Si            1 RES     
   12610 O          119.9310    33.8980     5.2210 O             1 RES     
   12611 O          107.6010    34.5360     2.5650 O             1 RES     
   12612 O          141.9330    37.9030     4.7360 O             1 RES     
   12613 Si         106.2890    17.4690     9.5750 Si            1 RES     
   12614 OS         125.4360    11.1810    11.7760 OS            1 RES     
   12615 O          110.2860     1.4390     5.2360 O             1 RES     
   12616 O          123.4720    43.8750     7.4750 O             1 RES     
   12617 O          106.0160    44.9060     9.1190 O             1 RES     
   12618 Si         112.5860     9.9290     3.0050 Si            1 RES     
   12619 O          102.3750    15.4810     5.2860 O             1 RES     
   12620 Si         105.0570    13.0090     9.6470 Si            1 RES     
   12621 O          118.5420     5.3050     7.9260 O             1 RES     
   12622 O          148.6410    43.7890     8.4790 O             1 RES     
   12623 O          111.8310    30.9040    11.1600 O             1 RES     
   12624 O          135.0670    13.4710     6.3520 O             1 RES     
   12625 Si         142.0050    38.9920     3.5840 Si            1 RES     
   12626 O          108.0640    40.0100     3.0870 O             1 RES     
   12627 Si         128.7100    37.9400     8.8920 Si            1 RES     
   12628 Si         101.4570     7.3840     7.0950 Si            1 RES     
   12629 O          119.5950    31.6930     6.4870 O             1 RES     
   12630 Si         120.2910    10.6330    10.3250 Si            1 RES     
   12631 O          149.4830     9.5720     4.3120 O             1 RES     
   12632 Si         149.2360    30.9390    10.2300 Si            1 RES     
   12633 O          129.8460    41.2250     8.0550 O             1 RES     
   12634 Si         119.0220    25.9820     7.4110 Si            1 RES     
   12635 O          123.4690    13.3370     9.5400 O             1 RES     
   12636 Si         123.9240    24.9980     8.7160 Si            1 RES     
   12637 OS         133.2710    37.9530    13.2690 OS            1 RES     
   12638 OS         122.4530    21.1830    13.0020 OS            1 RES     
   12639 O          125.8540    25.8150     5.0220 O             1 RES     
   12640 O          140.4720    31.4740     8.0220 O             1 RES     
   12641 Si         149.0790     9.2880     7.9830 Si            1 RES     
   12642 OS         106.2560     6.2770    13.5190 OS            1 RES     
   12643 Si         134.2060    40.7980     4.4520 Si            1 RES     
   12644 O          138.6100    37.7160     3.1690 O             1 RES     
   12645 Si         107.0770    20.2490     8.8390 Si            1 RES     
   12646 Si         148.9090    46.5840    11.4290 Si            1 RES     
   12647 Si         134.5520     9.9310     7.0270 Si            1 RES     
   12648 Si         120.0360    31.2220    10.1190 Si            1 RES     
   12649 O          102.8930    22.2920     2.5400 O             1 RES     
   12650 Si         127.6670    16.0710     7.8400 Si            1 RES     
   12651 O          128.8060    13.8260     5.0430 O             1 RES     
   12652 Si         124.8180    12.7050    10.9700 Si            1 RES     
   12653 Si         148.9160    33.1910     8.2340 Si            1 RES     
   12654 Si         119.3220    38.0950    12.5930 Si            1 RES     
   12655 Si         101.9380    35.8990    11.6940 Si            1 RES     
   12656 O          145.7460    37.2740    11.2740 O             1 RES     
   12657 Si         119.9030    14.9890     8.5670 Si            1 RES     
   12658 O          125.7710     4.4830     6.4720 O             1 RES     
   12659 O          145.7780    22.3830    11.6510 O             1 RES     
   12660 O          148.9850    32.2290     4.6010 O             1 RES     
   12661 Si         137.7750    39.8480     6.4840 Si            1 RES     
   12662 O          108.1810     1.0180     6.6000 O             1 RES     
   12663 O          107.9860     9.8280     2.0970 O             1 RES     
   12664 Si         129.5330    33.3360     5.4390 Si            1 RES     
   12665 O          146.2350    23.4670     5.7550 O             1 RES     
   12666 Si         117.2150    28.3100     6.4770 Si            1 RES     
   12667 O          123.2530     7.7300     5.9480 O             1 RES     
   12668 O          120.2230    41.7250     6.0320 O             1 RES     
   12669 Si         114.1060     2.9270    12.3560 Si            1 RES     
   12670 O          119.4250    26.0820     8.9530 O             1 RES     
   12671 Si         107.2080    48.9900     9.7760 Si            1 RES     
   12672 OS         113.0180    37.7460    13.3970 OS            1 RES     
   12673 Si         149.0280    16.6680     9.7360 Si            1 RES     
   12674 O          138.7140    39.7180     7.7470 O             1 RES     
   12675 Si         130.7840    46.8420     5.9520 Si            1 RES     
   12676 O          110.4830    29.8580     4.8470 O             1 RES     
   12677 O          143.3200    41.9460     1.6670 O             1 RES     
   12678 Si         118.2410    12.9120    10.1490 Si            1 RES     
   12679 O          110.7840    43.1810    10.3760 O             1 RES     
   12680 O          142.2450    42.8690     9.2390 O             1 RES     
   12681 Si         128.5000    22.7930     8.3570 Si            1 RES     
   12682 O          104.2370    21.0310    10.8790 O             1 RES     
   12683 O          131.8450     8.4730    11.9550 O             1 RES     
   12684 O          144.0220    22.2570     9.9290 O             1 RES     
   12685 Si         139.1410    49.3650     6.8780 Si            1 RES     
   12686 Si         105.3790     0.2450     4.5480 Si            1 RES     
   12687 O          108.0870    10.3600     7.2540 O             1 RES     
   12688 O          129.9120    43.3700     9.5960 O             1 RES     
   12689 Si         143.3470    17.3420     9.7490 Si            1 RES     
   12690 O          121.2180    38.5560     4.1250 O             1 RES     
   12691 Si         146.2780    18.2610    10.0530 Si            1 RES     
   12692 O          119.3690    39.5920     7.2420 O             1 RES     
   12693 O          147.3990    13.5140     4.6950 O             1 RES     
   12694 Si         129.8150    33.5000    12.2720 Si            1 RES     
   12695 O          129.7090     4.6080     3.9520 O             1 RES     
   12696 O          124.4790     6.5760     3.9720 O             1 RES     
   12697 Si         145.4830     0.4720     2.9760 Si            1 RES     
   12698 O          142.9600    21.7040     4.9030 O             1 RES     
   12699 O          111.2310    19.0010     2.7990 O             1 RES     
   12700 Si         130.8700     8.1510     3.5780 Si            1 RES     
   12701 Si         110.7240    44.5390     9.5680 Si            1 RES     
   12702 O          144.5910     3.2770    10.0920 O             1 RES     
   12703 OS         140.6880    12.9890    12.1640 OS            1 RES     
   12704 O          123.7620    34.0750     5.5450 O             1 RES     
   12705 O          128.5770    19.4320     4.6810 O             1 RES     
   12706 Si         148.8450    32.4750     3.0400 Si            1 RES     
   12707 O          102.2640    28.7650    11.3580 O             1 RES     
   12708 O          108.7090    18.4050    12.0580 O             1 RES     
   12709 Si         136.6600    29.8290     3.7120 Si            1 RES     
   12710 O          124.6190    21.3980     7.7070 O             1 RES     
   12711 Si         139.7760    27.3710    10.4760 Si            1 RES     
   12712 OS         148.4250    30.9370    11.5870 OS            1 RES     
   12713 O          136.1050     3.2680     8.2910 O             1 RES     
   12714 O          112.4430     1.3040     8.2790 O             1 RES     
   12715 Si         133.4360    16.4340    10.8380 Si            1 RES     
   12716 Si         130.7530     4.1730     5.0870 Si            1 RES     
   12717 O          106.1070    38.0600     5.8620 O             1 RES     
   12718 O          138.6680    36.4770     8.9480 O             1 RES     
   12719 Si         111.1630     9.6020     5.7720 Si            1 RES     
   12720 Si         140.3730    14.4940     8.7190 Si            1 RES     
   12721 O          149.6810    32.3530     7.0340 O             1 RES     
   12722 OS         114.2170    22.5440    13.1760 OS            1 RES     
   12723 O          133.6960    15.5260     7.1440 O             1 RES     
   12724 O          134.6540    49.6130     3.8450 O             1 RES     
   12725 O          100.6790    30.3410     5.3820 O             1 RES     
   12726 Si         119.0850    48.6460    12.2470 Si            1 RES     
   12727 Si         122.1510     2.9900    10.5480 Si            1 RES     
   12728 O          134.7300    36.8210     2.4400 O             1 RES     
   12729 O          102.4910    18.3390     2.9200 O             1 RES     
   12730 Si         146.3210    41.5570     3.9180 Si            1 RES     
   12731 O          135.5150    12.7300     1.6720 O             1 RES     
   12732 O          120.6750    35.7400     9.5880 O             1 RES     
   12733 O          144.1660    26.3470     8.2340 O             1 RES     
   12734 Si         100.5010    25.4290     7.9210 Si            1 RES     
   12735 O          125.2210    39.4880     5.9300 O             1 RES     
   12736 OS         146.3090    35.2350    12.6710 OS            1 RES     
   12737 O          119.1550     7.3510     3.9290 O             1 RES     
   12738 O          124.3180    25.4750     7.2570 O             1 RES     
   12739 O          144.5330    42.4470    10.6150 O             1 RES     
   12740 O          132.8890    37.2560     8.9580 O             1 RES     
   12741 OS         101.4300     7.6250    13.2710 OS            1 RES     
   12742 Si         110.0770    18.5520     6.3800 Si            1 RES     
   12743 Si         115.4110    12.2030     8.9330 Si            1 RES     
   12744 Si         123.5250    22.0570    12.3530 Si            1 RES     
   12745 O          132.6580    29.0700    10.7970 O             1 RES     
   12746 O          118.9780    11.5120    10.0640 O             1 RES     
   12747 OS         125.6930    19.3670    13.4870 OS            1 RES     
   12748 O          142.1530     9.8200     4.4030 O             1 RES     
   12749 OS         131.5440    17.1520    13.7880 OS            1 RES     
   12750 O          118.3820     7.7760    11.1990 O             1 RES     
   12751 Si         119.9120    25.9010    10.4390 Si            1 RES     
   12752 Si         121.2670    39.6860     3.0300 Si            1 RES     
   12753 O          110.3610    44.5950     2.8460 O             1 RES     
   12754 O          119.7400    45.9700     3.4200 O             1 RES     
   12755 Si         118.8430    10.6020     5.8770 Si            1 RES     
   12756 O          111.3070    24.0840     8.6510 O             1 RES     
   12757 O          121.1670     1.4560    13.9310 O             1 RES     
   12758 O          108.0970    29.2030     4.1690 O             1 RES     
   12759 O          133.8360    10.8010     2.9710 O             1 RES     
   12760 O          101.1100    20.6060     3.1090 O             1 RES     
   12761 Si         146.7980    20.7630     8.3390 Si            1 RES     
   12762 O          112.9400    38.4750     8.8170 O             1 RES     
   12763 Si         129.6600    44.8580    10.0510 Si            1 RES     
   12764 O          111.2120    15.4640     8.3510 O             1 RES     
   12765 Si         139.6190     2.0610     8.6460 Si            1 RES     
   12766 OS         119.3910    39.6610    12.7410 OS            1 RES     
   12767 O          147.5620     7.4470     5.5700 O             1 RES     
   12768 Si         139.2700    36.7440    10.3940 Si            1 RES     
   12769 O          143.0340    18.0030     8.3440 O             1 RES     
   12770 Si         131.7660     6.8110     9.2550 Si            1 RES     
   12771 O          102.4310    20.7180     6.6690 O             1 RES     
   12772 Si         141.7730    44.6900    12.3280 Si            1 RES     
   12773 O          128.3720    33.8490     7.0030 O             1 RES     
   12774 OS         112.9090    27.3060    12.5350 OS            1 RES     
   12775 Si         104.1990     5.0560    10.8450 Si            1 RES     
   12776 O          139.9540     5.4880     5.1340 O             1 RES     
   12777 Si         102.1290    14.5270     4.0690 Si            1 RES     
   12778 Si         123.8080     8.7590     7.0580 Si            1 RES     
   12779 O          115.0930     0.7780     4.4410 O             1 RES     
   12780 O          134.8950     4.1750     6.5650 O             1 RES     
   12781 OS         134.3920    29.4680    12.5620 OS            1 RES     
   12782 O          103.3300    22.7720     8.3380 O             1 RES     
   12783 O          118.1330     9.5050     2.4330 O             1 RES     
   12784 O          112.2920    44.5360     9.1110 O             1 RES     
   12785 O          106.9350    20.8710     7.3810 O             1 RES     
   12786 Si         108.2440    37.4110     8.3920 Si            1 RES     
   12787 OS         125.8330    15.4440    13.8280 OS            1 RES     
   12788 Si         113.5490    34.3190    11.9030 Si            1 RES     
   12789 Si         119.7110     7.5830    10.4450 Si            1 RES     
   12790 Si         128.6080    15.3720     4.9640 Si            1 RES     
   12791 O          139.9930     4.1720     3.0720 O             1 RES     
   12792 Si         125.0340    32.0940     8.5620 Si            1 RES     
   12793 O          143.6290    33.2150     5.0040 O             1 RES     
   12794 Si         111.3430    41.5240     4.6710 Si            1 RES     
   12795 Si         127.0130    13.1390     8.3330 Si            1 RES     
   12796 Si         148.9600    13.6160     4.9470 Si            1 RES     
   12797 O          126.9220    29.1920     9.9540 O             1 RES     
   12798 Si         106.3490    26.5680     6.4490 Si            1 RES     
   12799 O          126.2180     3.1580    10.9840 O             1 RES     
   12800 O          133.2120    16.3800     9.3320 O             1 RES     
   12801 OS         106.4260    34.7250    12.1420 OS            1 RES     
   12802 O          119.1830    48.4110     2.8480 O             1 RES     
   12803 Si         102.8540    46.5740     8.6460 Si            1 RES     
   12804 O          140.5630    35.5950     5.7950 O             1 RES     
   12805 O          133.2630    10.6490     7.6910 O             1 RES     
   12806 O          144.8170    49.4930     6.4370 O             1 RES     
   12807 O          115.8050     0.2400    11.7960 O             1 RES     
   12808 Si         129.1690    40.2680     6.9740 Si            1 RES     
   12809 O          124.2300    32.0940     9.9360 O             1 RES     
   12810 OS         136.0060    14.0500    12.9430 OS            1 RES     
   12811 Si         104.1400    31.8930    12.2360 Si            1 RES     
   12812 O          113.9600    35.7890    11.8600 O             1 RES     
   12813 O          110.1560    17.0980     6.7790 O             1 RES     
   12814 O          131.4100    38.4720    11.0010 O             1 RES     
   12815 O          116.3110     9.1870    12.1930 O             1 RES     
   12816 O          149.7160     6.1130    11.9960 O             1 RES     
   12817 Si         146.2190     6.7850     6.0930 Si            1 RES     
   12818 OS         149.4500     8.6740    12.1600 OS            1 RES     
   12819 O          100.5590    24.8310     9.4250 O             1 RES     
   12820 O          131.0190    12.8100     4.2520 O             1 RES     
   12821 O          142.5120    13.8110     3.3200 O             1 RES     
   12822 O          144.9820    35.0040     3.9540 O             1 RES     
   12823 Si         147.8900    40.3320     9.3920 Si            1 RES     
   12824 OS         140.7650    19.2600    12.4870 OS            1 RES     
   12825 O          149.3310    34.6780     8.0710 O             1 RES     
   12826 O          103.8620    16.9500     1.4150 O             1 RES     
   12827 O          106.5610     9.2230     3.8240 O             1 RES     
   12828 O          134.6850    12.5290    11.3780 O             1 RES     
   12829 Si         124.1050    39.4900    10.4800 Si            1 RES     
   12830 O          133.2570     0.2650     5.6660 O             1 RES     
   12831 O          122.7900     9.8900     7.1890 O             1 RES     
   12832 O          132.6950    35.6060     6.7950 O             1 RES     
   12833 OS         105.9340    28.2390    12.2320 OS            1 RES     
   12834 O          129.9530    15.9870     4.5410 O             1 RES     
   12835 Si         145.8740    13.8780     8.0790 Si            1 RES     
   12836 O          134.1640    17.8210    10.9570 O             1 RES     
   12837 Si         149.1160    20.2060    11.9690 Si            1 RES     
   12838 O          115.7400    10.8380     8.1330 O             1 RES     
   12839 Si         105.7440    46.3750     9.5310 Si            1 RES     
   12840 O          138.2740    24.3050    10.1730 O             1 RES     
   12841 O          143.1520     1.7600     6.8610 O             1 RES     
   12842 O          124.4440    16.8930     9.2070 O             1 RES     
   12843 Si         147.1230    44.1060     8.0430 Si            1 RES     
   12844 Si         132.3110    13.8020     4.0170 Si            1 RES     
   12845 O          127.0840     0.2090     8.7460 O             1 RES     
   12846 Si         142.5260    24.7440    12.2770 Si            1 RES     
   12847 O          148.5480     9.5350     6.5140 O             1 RES     
   12848 O          132.0830     5.2400     9.5810 O             1 RES     
   12849 Si         130.7770     6.9750     6.3810 Si            1 RES     
   12850 O          132.6560    17.3460     3.5770 O             1 RES     
   12851 Si         122.9830    46.9500     5.2330 Si            1 RES     
   12852 Si         110.7820    22.8880     7.5800 Si            1 RES     
   12853 Si         128.5620    10.2560     3.2980 Si            1 RES     
   12854 O          139.5970     8.4610     6.8880 O             1 RES     
   12855 OS         128.0860    27.0470    12.8440 OS            1 RES     
   12856 Si         112.4540     0.0520     9.2110 Si            1 RES     
   12857 OS         146.1330    18.2330    11.5320 OS            1 RES     
   12858 O          125.1730     9.3400     6.4250 O             1 RES     
   12859 O          133.3330    44.0330    10.0310 O             1 RES     
   12860 O          141.8390    24.0760     5.2260 O             1 RES     
   12861 Si         137.3600    17.2670     7.9960 Si            1 RES     
   12862 Si         128.2610    28.7300     5.8670 Si            1 RES     
   12863 Si         130.2820     8.1480    12.0040 Si            1 RES     
   12864 O          103.8730     2.3210     7.7110 O             1 RES     
   12865 O          114.0220    10.2330    11.5570 O             1 RES     
   12866 Si         122.5800    13.5060     8.3100 Si            1 RES     
   12867 O          149.1180     1.8730     9.3660 O             1 RES     
   12868 Si         148.9490    14.0960     8.0240 Si            1 RES     
   12869 Si         146.8790     3.8960     6.8860 Si            1 RES     
   12870 O          135.4650    32.8620     6.0240 O             1 RES     
   12871 O          127.1510    37.9040     8.7450 O             1 RES     
   12872 Si         117.7620    23.1290     3.9820 Si            1 RES     
   12873 O          126.4320    17.0710     7.9550 O             1 RES     
   12874 OS         123.7870    28.9780    13.9750 OS            1 RES     
   12875 O          114.9030    22.0870     6.1110 O             1 RES     
   12876 O          116.5420    43.3890     8.1150 O             1 RES     
   12877 O          100.9190    22.9880     4.2150 O             1 RES     
   12878 Si         117.7200    13.2740     4.9340 Si            1 RES     
   12879 O          105.1420    42.4580     8.9610 O             1 RES     
   12880 O          134.5830     8.8080     5.8920 O             1 RES     
   12881 O          100.6930    22.6550     1.5560 O             1 RES     
   12882 O          127.9120    44.4110     6.9660 O             1 RES     
   12883 Si         148.7060    12.1020    12.1750 Si            1 RES     
   12884 O          118.3710    13.4360    11.6530 O             1 RES     
   12885 O          140.0080     4.3710    11.6840 O             1 RES     
   12886 O          118.3840    14.6960     5.1130 O             1 RES     
   12887 O          105.2630    46.3220    11.0400 O             1 RES     
   12888 O          147.8390    21.1070     5.3680 O             1 RES     
   12889 Si         126.3970    15.0080    12.4620 Si            1 RES     
   12890 O          142.3170    26.3140     6.2530 O             1 RES     
   12891 O          125.3350     7.2390    10.7060 O             1 RES     
   12892 Si         131.4810    26.0880     8.1040 Si            1 RES     
   12893 O          149.2420    36.2610     5.9950 O             1 RES     
   12894 O          146.9280     2.4810     9.7930 O             1 RES     
   12895 O          136.5390    30.8970     7.4160 O             1 RES     
   12896 O          132.5680    21.7720     6.0700 O             1 RES     
   12897 O          101.2920    19.6120     8.2810 O             1 RES     
   12898 O          124.1240    12.2340     5.0580 O             1 RES     
   12899 Si         103.8400     3.8590     8.0030 Si            1 RES     
   12900 Si         102.7330     7.5870     9.8720 Si            1 RES     
   12901 O          107.5060    25.9090    11.4880 O             1 RES     
   12902 Si         108.4160    24.7610     7.8710 Si            1 RES     
   12903 OS         101.2370    16.9980    13.2580 OS            1 RES     
   12904 O          114.4070     2.7210     7.7180 O             1 RES     
   12905 O          125.0570    40.4720    11.2770 O             1 RES     
   12906 O          121.3450    31.9200     4.4470 O             1 RES     
   12907 Si         111.9350    39.3810     9.6200 Si            1 RES     
   12908 Si         112.9040     2.3990     7.3500 Si            1 RES     
   12909 O          134.6530     4.1580     4.0910 O             1 RES     
   12910 Si         120.6580    32.5660     5.7020 Si            1 RES     
   12911 O          109.9550     6.7670    10.5320 O             1 RES     
   12912 O          106.3270    49.7210     5.6860 O             1 RES     
   12913 O          128.0230    23.1170     4.3880 O             1 RES     
   12914 Si         113.5940     1.3770     4.4050 Si            1 RES     
   12915 O          126.0460    12.7870     7.0520 O             1 RES     
   12916 Si         108.1330    39.0510    11.0320 Si            1 RES     
   12917 O          129.3400     0.0210     9.9030 O             1 RES     
   12918 OS         120.6290    19.5290    12.8240 OS            1 RES     
   12919 O          146.3110    16.6070     5.0460 O             1 RES     
   12920 O          135.1690     9.0720     8.2150 O             1 RES     
   12921 O          122.7640    36.2150    10.5800 O             1 RES     
   12922 O          121.7240     4.2780    11.3080 O             1 RES     
   12923 O          130.1630    19.2540     8.8420 O             1 RES     
   12924 Si         115.8320    17.6140    10.7090 Si            1 RES     
   12925 O          149.4760    39.6740     5.8810 O             1 RES     
   12926 O          117.5210    13.0590     3.3260 O             1 RES     
   12927 Si         113.2090    43.8680     5.5150 Si            1 RES     
   12928 O          136.7560    28.3420     3.2740 O             1 RES     
   12929 O          100.1930     8.2110     7.5440 O             1 RES     
   12930 O          140.9160     8.9220     9.0310 O             1 RES     
   12931 Si         135.5870    48.5000    12.5270 Si            1 RES     
   12932 OS         132.5230    30.9610    12.8910 OS            1 RES     
   12933 Si         126.3850    30.8540     4.7940 Si            1 RES     
   12934 Si         121.2500     0.8260    12.5180 Si            1 RES     
   12935 O          127.9370    28.7950     7.4510 O             1 RES     
   12936 Si         132.3110     1.7010    11.9900 Si            1 RES     
   12937 O          120.8080     3.1280     6.0350 O             1 RES     
   12938 O          140.3960    19.4270    10.0400 O             1 RES     
   12939 O          108.1620    44.6540     3.9810 O             1 RES     
   12940 O          131.2400    47.1840     7.4300 O             1 RES     
   12941 O          123.7120     2.8520    10.9510 O             1 RES     
   12942 Si         121.9530    49.8670     5.1650 Si            1 RES     
   12943 O          128.4080    32.9060    12.4150 O             1 RES     
   12944 Si         102.6000    39.6720    10.1250 Si            1 RES     
   12945 Si         114.2540    20.1500     9.5970 Si            1 RES     
   12946 Si         133.7110    11.3420    11.5940 Si            1 RES     
   12947 O          102.3200    36.0940    10.2110 O             1 RES     
   12948 Si         133.6340    36.2480     7.9020 Si            1 RES     
   12949 OS         110.7800     5.6640    12.5930 OS            1 RES     
   12950 O          124.1490    43.2310    10.0890 O             1 RES     
   12951 O          143.1390    28.5830    10.8060 O             1 RES     
   12952 O          147.2410     5.9820    11.9870 O             1 RES     
   12953 Si         113.1380    10.7930    10.3950 Si            1 RES     
   12954 O          117.1380    33.0670    11.5390 O             1 RES     
   12955 Si         126.4910    29.8150    11.3490 Si            1 RES     
   12956 O          118.5480    12.0030     5.4170 O             1 RES     
   12957 O          131.5450    35.9710     4.5650 O             1 RES     
   12958 Si         100.7740    47.0520     3.7350 Si            1 RES     
   12959 O          102.5520     7.5940     3.3250 O             1 RES     
   12960 Si         145.9920    32.1560     8.3110 Si            1 RES     
   12961 O          144.3380    46.0900     7.4270 O             1 RES     
   12962 Si         143.0130    29.5670     5.5960 Si            1 RES     
   12963 Si         143.2570     4.0900    10.1390 Si            1 RES     
   12964 Si         127.4220     3.6870    10.1520 Si            1 RES     
   12965 O          120.0630    39.6790     1.9350 O             1 RES     
   12966 O          117.8060     0.4220     4.2120 O             1 RES     
   12967 O          138.2740     6.0910    11.2360 O             1 RES     
   12968 O          104.5930    39.7580     5.1360 O             1 RES     
   12969 Si         128.9100     1.9180     6.1170 Si            1 RES     
   12970 O          111.7560     6.7500     4.0410 O             1 RES     
   12971 Si         124.7800    37.9610     5.9250 Si            1 RES     
   12972 O          109.0370     8.2650     8.6630 O             1 RES     
   12973 O          124.0770    12.4170     2.5300 O             1 RES     
   12974 O          137.7560    32.9340     2.4400 O             1 RES     
   12975 O          104.5950    49.1400    14.5170 O             1 RES     
   12976 O          124.6140    21.0140    11.8510 O             1 RES     
   12977 O          122.9150    25.2500     2.6540 O             1 RES     
   12978 O          110.7970    47.4620     6.5500 O             1 RES     
   12979 Si         121.8370    41.1810     9.1520 Si            1 RES     
   12980 O          109.1480     7.9230     3.5290 O             1 RES     
   12981 Si         140.5370     9.9940    10.0790 Si            1 RES     
   12982 O          105.7350     5.3190    11.2190 O             1 RES     
   12983 O          101.9570    38.9090     4.9630 O             1 RES     
   12984 O          139.2870    40.1540    10.0700 O             1 RES     
   12985 O          103.8470    17.0590     4.3490 O             1 RES     
   12986 O          117.8950    41.6230     7.1700 O             1 RES     
   12987 Si         141.1600    32.1080     9.2800 Si            1 RES     
   12988 Si         107.5300    18.7090     4.5500 Si            1 RES     
   12989 O          139.2430    10.7900     9.7430 O             1 RES     
   12990 O          138.8950    14.7690     9.3090 O             1 RES     
   12991 Si         132.5590    37.3940    10.4550 Si            1 RES     
   12992 O          136.1270    46.5280     6.8370 O             1 RES     
   12993 O          135.6710     7.5290     3.6010 O             1 RES     
   12994 Si         141.2410     5.5420     6.0670 Si            1 RES     
   12995 O          144.3530    47.2570     5.2990 O             1 RES     
   12996 O          121.0960    11.5510    11.3260 O             1 RES     
   12997 O          136.3140    47.7270     2.8030 O             1 RES     
   12998 Si         103.2690     7.8770     4.6890 Si            1 RES     
   12999 Si         144.3260    32.8360    10.9620 Si            1 RES     
   13000 O          105.9080    44.4830     4.7470 O             1 RES     
   13001 O          137.8670    48.5510     6.9750 O             1 RES     
   13002 Si         147.7890    29.7170     7.8140 Si            1 RES     
   13003 O          110.5360    45.8010    10.8160 O             1 RES     
   13004 O          130.0420     6.9110     3.1560 O             1 RES     
   13005 O          129.3280    25.3040     5.3200 O             1 RES     
   13006 O          102.6590     4.1220     4.7300 O             1 RES     
   13007 O          103.6920    39.0040     2.9030 O             1 RES     
   13008 O          146.0630     7.6860    10.0550 O             1 RES     
   13009 Si         142.8980    39.7550    11.7930 Si            1 RES     
   13010 Si         144.6300    32.1160     5.5620 Si            1 RES     
   13011 Si         106.6730    28.6420     4.1830 Si            1 RES     
   13012 O          135.2920    12.1580     4.2350 O             1 RES     
   13013 O          123.1660    15.8090     4.5290 O             1 RES     
   13014 OS         136.2370    33.6100    13.1820 OS            1 RES     
   13015 O          107.7920    19.5000     3.2450 O             1 RES     
   13016 Si         139.0220    39.1650     3.7950 Si            1 RES     
   13017 O          138.6900    39.3440     5.2950 O             1 RES     
   13018 Si         120.5840    46.4850     9.0350 Si            1 RES     
   13019 Si         126.1220     6.8770     3.7100 Si            1 RES     
   13020 O          120.6050    27.2480    10.9330 O             1 RES     
   13021 O          142.4750    43.0040     4.0240 O             1 RES     
   13022 O          148.6060    16.6050     3.7510 O             1 RES     
   13023 OS         131.7590    28.7610    13.1040 OS            1 RES     
   13024 O          117.4440    10.2380     6.5740 O             1 RES     
   13025 O          129.8050     9.3610     3.5760 O             1 RES     
   13026 O          124.9300     2.2730     5.9240 O             1 RES     
   13027 O          128.3520    10.3970     1.7180 O             1 RES     
   13028 O          145.0480    49.2860     3.9300 O             1 RES     
   13029 O          148.9510    41.4400     9.0160 O             1 RES     
   13030 Si         123.2200    44.8880     8.7860 Si            1 RES     
   13031 O          146.5110    30.6330     8.0910 O             1 RES     
   13032 Si         102.9310    20.3950    11.4460 Si            1 RES     
   13033 O          137.0440    36.4570     7.0990 O             1 RES     
   13034 OS         123.2340    45.3400    13.3730 OS            1 RES     
   13035 Si         104.5790    17.8720    12.0130 Si            1 RES     
   13036 O          131.9420    31.6430     9.0490 O             1 RES     
   13037 Si         120.8980    21.6300     7.9010 Si            1 RES     
   13038 O          120.6810    24.5750    10.5290 O             1 RES     
   13039 Si         149.8680    39.7510    11.6200 Si            1 RES     
   13040 O          146.8890    41.2540    10.2250 O             1 RES     
   13041 Si         141.9310    29.5470    10.6970 Si            1 RES     
   13042 O          100.9740     5.9620     6.5700 O             1 RES     
   13043 O          115.6560    34.3010     8.0550 O             1 RES     
   13044 O          111.1760    49.7570    10.1540 O             1 RES     
   13045 O          116.9850    20.3870     6.9930 O             1 RES     
   13046 O          121.1540    22.3680     9.2110 O             1 RES     
   13047 Si         107.0370     4.9610    12.2210 Si            1 RES     
   13048 O          102.4470     0.3440    10.6000 O             1 RES     
   13049 Si         134.4530    45.6960    12.7250 Si            1 RES     
   13050 O          135.4760     0.9680    10.6270 O             1 RES     
   13051 O          138.3100    16.9160     6.8450 O             1 RES     
   13052 Si         149.5990    10.9130     3.3680 Si            1 RES     
   13053 O          130.3820    40.4390    11.8390 O             1 RES     
   13054 O          102.3780    48.0490     9.1800 O             1 RES     
   13055 O          111.9200    35.5030     8.8340 O             1 RES     
   13056 Si         111.6610    42.2820    11.3350 Si            1 RES     
   13057 O          116.2840     2.2140     9.1100 O             1 RES     
   13058 O          128.8800    23.1380     6.8910 O             1 RES     
   13059 Si         115.1530     8.2330     3.0780 Si            1 RES     
   13060 O          137.6080    16.6840     3.1480 O             1 RES     
   13061 O          116.5280    23.4710     4.8550 O             1 RES     
   13062 O          102.0400    19.3430    10.6480 O             1 RES     
   13063 O          126.6770    32.2300     8.4070 O             1 RES     
   13064 O          134.8490    45.1810     8.5100 O             1 RES     
   13065 O          144.2890    39.3050    11.3820 O             1 RES     
   13066 O          133.8490    20.4930    11.2560 O             1 RES     
   13067 O          122.5550    39.5800     2.1820 O             1 RES     
   13068 O          142.6690    41.1440    11.1220 O             1 RES     
   13069 O          101.5370    26.3480    11.4820 O             1 RES     
   13070 O          131.1460    46.0030     2.2060 O             1 RES     
   13071 O          106.7110    37.0250     8.4600 O             1 RES     
   13072 O          140.4520    26.0420     4.4160 O             1 RES     
   13073 Si         101.4310    29.3570     4.3530 Si            1 RES     
   13074 Si         129.4410    44.1440     6.3630 Si            1 RES     
   13075 Si         134.5620    37.2000    12.6940 Si            1 RES     
   13076 O          115.4150    17.9690     3.7480 O             1 RES     
   13077 O          148.6890    29.9460     9.1440 O             1 RES     
   13078 Si         119.7040    35.1190     4.3010 Si            1 RES     
   13079 Si         109.2350    40.2780     8.5050 Si            1 RES     
   13080 O          110.1700    22.6780     3.4770 O             1 RES     
   13081 O          128.0260    48.4980     3.9550 O             1 RES     
   13082 Si         110.2590     7.0960     4.3300 Si            1 RES     
   13083 Si         110.7680     0.3680     4.1590 Si            1 RES     
   13084 O          107.4330    33.4430    10.3300 O             1 RES     
   13085 O          137.5930    12.8270     9.0240 O             1 RES     
   13086 O          139.2760    49.7930     5.2960 O             1 RES     
   13087 Si         140.4220    22.1860     8.0240 Si            1 RES     
   13088 O          141.5440    30.2860     5.8490 O             1 RES     
   13089 Si         115.1180    23.4980     5.5180 Si            1 RES     
   13090 O          137.2250    44.6220     8.1630 O             1 RES     
   13091 Si         137.4620    29.9450     6.6480 Si            1 RES     
   13092 O          128.2940     2.3970     9.6980 O             1 RES     
   13093 Si         149.9060    16.3460     2.8790 Si            1 RES     
   13094 O          102.1370    21.5170    12.1680 O             1 RES     
   13095 O          143.6060    34.1830    10.4770 O             1 RES     
   13096 Si         140.0440    22.8680     2.7750 Si            1 RES     
   13097 Si         130.3540    49.4740    11.0060 Si            1 RES     
   13098 O          110.4660    28.0500     3.3230 O             1 RES     
   13099 O          143.5030    29.4090     4.0760 O             1 RES     
   13100 O          112.3350    34.3870    10.9070 O             1 RES     
   13101 Si         130.2830    35.4870    10.0540 Si            1 RES     
   13102 O          101.5180     7.7760    10.8100 O             1 RES     
   13103 O          113.9350    48.6380    12.4890 O             1 RES     
   13104 O          111.8470    15.4370     5.8870 O             1 RES     
   13105 Si         136.3330    41.9210    10.7280 Si            1 RES     
   13106 Si         135.4250    49.3560     9.7630 Si            1 RES     
   13107 O          120.1260    10.3950     6.6900 O             1 RES     
   13108 O          142.1540     3.4420    10.9540 O             1 RES     
   13109 OS         148.7590     4.2680    13.4230 OS            1 RES     
   13110 O          134.3070    45.7400    11.1810 O             1 RES     
   13111 Si         128.9580    19.7090    12.6810 Si            1 RES     
   13112 O          113.5450     2.5430     3.3690 O             1 RES     
   13113 Si         110.8420    26.5980     2.8430 Si            1 RES     
   13114 Si         120.2770    23.7320     5.6520 Si            1 RES     
   13115 Si         114.4350    38.4700     8.2500 Si            1 RES     
   13116 O          114.3810    38.4590    11.4540 O             1 RES     
   13117 Si         140.9010     7.9910    12.3730 Si            1 RES     
   13118 Si         104.0140    12.4090     2.8490 Si            1 RES     
   13119 O          146.4900     5.3760     6.6270 O             1 RES     
   13120 O          143.7220     5.6280     2.8890 O             1 RES     
   13121 O          109.7740     8.0690    12.8280 O             1 RES     
   13122 O          111.2780    22.8880     6.1010 O             1 RES     
   13123 Si         134.9060    19.1140     7.6960 Si            1 RES     
   13124 O          114.3030     7.0030     3.5270 O             1 RES     
   13125 O          107.6360     4.7540     3.4860 O             1 RES     
   13126 O          101.1770    36.5940     7.9670 O             1 RES     
   13127 Si         141.8900    36.6090     5.6030 Si            1 RES     
   13128 Si         108.3270    24.6850    10.8860 Si            1 RES     
   13129 Si         148.5580    37.0190     4.7550 Si            1 RES     
   13130 O          118.0280    24.1480     2.7820 O             1 RES     
   13131 O          138.2120    40.3700     3.1680 O             1 RES     
   13132 O          113.2290    18.9340     4.1960 O             1 RES     
   13133 O          101.5240    42.1600     5.3490 O             1 RES     
   13134 O          134.2080    41.4020     2.9950 O             1 RES     
   13135 O          109.9340    30.2440     7.3410 O             1 RES     
   13136 O          102.0630    15.5610     2.9380 O             1 RES     
   13137 Si         127.0240    28.3330     8.6310 Si            1 RES     
   13138 O          135.8430     5.7330    11.5410 O             1 RES     
   13139 O          127.5350     2.5990     5.9240 O             1 RES     
   13140 Si         143.6470     6.3850     4.3100 Si            1 RES     
   13141 O          142.4490    45.0810     5.6010 O             1 RES     
   13142 O          138.6840    34.5900     7.1850 O             1 RES     
   13143 Si         143.7680    26.7680     6.7440 Si            1 RES     
   13144 O          147.2250    26.1170     2.2900 O             1 RES     
   13145 O          104.9090    17.5310    10.4690 O             1 RES     
   13146 O          128.7750     5.2600     1.7050 O             1 RES     
   13147 Si         131.4390    21.9590     5.0050 Si            1 RES     
   13148 Si         121.4930    10.7350     7.5580 Si            1 RES     
   13149 O          113.9710     6.4620     5.8890 O             1 RES     
   13150 O          133.0330    13.1450     8.0570 O             1 RES     
   13151 Si         134.9240    33.4730     4.7240 Si            1 RES     
   13152 O          126.3210    32.7020    13.5690 O             1 RES     
   13153 Si         131.5440    41.4570    12.4750 Si            1 RES     
   13154 O          129.3740    43.0310     2.4190 O             1 RES     
   13155 O          125.4890    13.7300    12.0520 O             1 RES     
   13156 Si         141.1940    25.4280     5.6740 Si            1 RES     
   13157 Si         125.0190    33.6200     4.5810 Si            1 RES     
   13158 O          125.8520    37.3180     4.9610 O             1 RES     
   13159 O          126.2680    22.5560     2.5550 O             1 RES     
   13160 O          133.7020     3.5210     8.8710 O             1 RES     
   13161 Si         149.5320    36.2110     7.5480 Si            1 RES     
   13162 O          107.9020    12.8950     5.8120 O             1 RES     
   13163 Si         132.6620    21.5750    11.0900 Si            1 RES     
   13164 Si         141.8410    37.7970     9.8630 Si            1 RES     
   13165 O          124.8970    38.6820     9.4090 O             1 RES     
   13166 O          119.4320    30.9940     8.6450 O             1 RES     
   13167 O          123.0340     6.4600    10.7360 O             1 RES     
   13168 Si         106.1230    21.0220     6.0700 Si            1 RES     
   13169 O          126.2580     7.8970     4.8800 O             1 RES     
   13170 O          124.7020    27.8820     4.0000 O             1 RES     
   13171 O          106.7870    43.4910    11.0880 O             1 RES     
   13172 O          104.7200    26.2960     6.7230 O             1 RES     
   13173 O          137.7030    28.5370     7.3720 O             1 RES     
   13174 O          134.9560    33.9470    11.0150 O             1 RES     
   13175 O          114.4000    21.2030    10.7780 O             1 RES     
   13176 O          117.2170    24.9120    13.6390 O             1 RES     
   13177 O          104.4340    46.6510     3.6400 O             1 RES     
   13178 O          130.7400    41.4030     3.7310 O             1 RES     
   13179 O          104.3840    13.3880    11.0640 O             1 RES     
   13180 OS         122.1030    11.6210    13.7130 OS            1 RES     
   13181 Si         131.4340    47.1230     9.0250 Si            1 RES     
   13182 OS         136.8030    42.6740    12.0850 OS            1 RES     
   13183 Si         122.1270    35.1590     9.6950 Si            1 RES     
   13184 Si         104.3300    41.3140     8.1820 Si            1 RES     
   13185 O          140.7490    28.5730    10.2950 O             1 RES     
   13186 O          132.6930    40.5850     4.9870 O             1 RES     
   13187 O          131.9860     3.9110     4.1460 O             1 RES     
   13188 O          145.5510     9.8530     8.1410 O             1 RES     
   13189 Si         130.2600    26.5190     5.2240 Si            1 RES     
   13190 Si         130.8330    16.8930    12.4020 Si            1 RES     
   13191 O          133.2690     3.5440     1.8200 O             1 RES     
   13192 Si         133.1600    28.3150     9.5480 Si            1 RES     
   13193 O          144.0770    47.9320    12.2840 O             1 RES     
   13194 O          147.5480    38.0060     5.6180 O             1 RES     
   13195 Si         137.6450    27.2860     8.3550 Si            1 RES     
   13196 O          127.5640    24.5850    13.4620 O             1 RES     
   13197 O          107.1940    24.1080     3.5390 O             1 RES     
   13198 Si         116.4750     0.4530     5.0370 Si            1 RES     
   13199 OS         119.0150    33.9640    12.9490 OS            1 RES     
   13200 Si         113.7360    46.8480     4.7960 Si            1 RES     
   13201 O          145.7160     3.1720     7.7260 O             1 RES     
   13202 O          147.2460    43.8840     6.4930 O             1 RES     
   13203 O          133.8920     7.0090    12.1530 O             1 RES     
   13204 Si         139.0750     5.0900     3.8950 Si            1 RES     
   13205 O          107.5480    21.7370     2.2120 O             1 RES     
   13206 O          138.7150    11.9880     2.8450 O             1 RES     
   13207 O          117.3960    45.5620     7.7220 O             1 RES     
   13208 Si         125.4570     0.0150     8.9280 Si            1 RES     
   13209 O          126.8410    31.3830    11.3970 O             1 RES     
   13210 Si         106.6870    28.7520     8.6050 Si            1 RES     
   13211 O          122.9350     8.4130     3.4420 O             1 RES     
   13212 O          139.6580    23.4910     8.2180 O             1 RES     
   13213 O          140.5220    13.4140     7.5850 O             1 RES     
   13214 O          112.5910    40.7200     5.2870 O             1 RES     
   13215 OS         129.9960    21.1650    13.4540 OS            1 RES     
   13216 Si         141.0860    12.8460     6.2010 Si            1 RES     
   13217 Si         116.5360    42.3980     6.8450 Si            1 RES     
   13218 O          105.2850    29.5070     8.5800 O             1 RES     
   13219 Si         145.8050    26.2980     2.8180 Si            1 RES     
   13220 O          113.0470    46.5060     7.9250 O             1 RES     
   13221 O          100.7180    49.8240     8.9760 O             1 RES     
   13222 Si         111.1980    35.2150    10.2120 Si            1 RES     
   13223 O          116.1250    27.2630     7.1250 O             1 RES     
   13224 O          142.0090     8.9310     6.7160 O             1 RES     
   13225 O          129.4600     7.4260     7.0500 O             1 RES     
   13226 Si         124.4940    16.1220     5.1530 Si            1 RES     
   13227 O          114.2950    24.3120     4.4240 O             1 RES     
   13228 O          129.1570    32.0700     6.3030 O             1 RES     
   13229 O          116.2070    42.0650     2.8460 O             1 RES     
   13230 Si         109.1930     2.1070     6.1930 Si            1 RES     
   13231 O          122.3780    10.9030     3.1270 O             1 RES     
   13232 O          129.5450    27.8690     5.5900 O             1 RES     
   13233 Si         109.7130    35.8030     6.0890 Si            1 RES     
   13234 O          116.2530    39.6080     2.5560 O             1 RES     
   13235 O          136.1380    34.2730     4.0100 O             1 RES     
   13236 O          138.8820    42.7470     2.5550 O             1 RES     
   13237 O          141.4980     4.0980     6.5750 O             1 RES     
   13238 O          144.7810    41.7280     3.7870 O             1 RES     
   13239 Si         121.5530    37.3940     5.0980 Si            1 RES     
   13240 O          115.2540    46.7190     5.0130 O             1 RES     
   13241 Si         148.3050     8.8110     5.0710 Si            1 RES     
   13242 Si         119.3380    36.4260     9.9850 Si            1 RES     
   13243 O          147.7060     8.7760     8.5610 O             1 RES     
   13244 O          116.0610     6.3310     7.6540 O             1 RES     
   13245 O          148.3560    10.4680     2.3570 O             1 RES     
   13246 Si         107.5970    15.8860     3.3550 Si            1 RES     
   13247 Si         133.3320    42.4600    10.1280 Si            1 RES     
   13248 Si         146.0100    36.0040     3.3990 Si            1 RES     
   13249 O          146.9380    40.5590     4.9240 O             1 RES     
   13250 Si         114.4050    18.2450     4.9420 Si            1 RES     
   13251 O          146.1040    11.4080     5.6420 O             1 RES     
   13252 O          127.3830     8.8200     6.7370 O             1 RES     
   13253 O          131.8700    15.0560     3.2500 O             1 RES     
   13254 Si         115.9070    10.0890     6.7220 Si            1 RES     
   13255 O          110.8390    15.5770    10.8400 O             1 RES     
   13256 Si         103.8790    23.8550     9.3030 Si            1 RES     
   13257 O          110.9570    21.5610     8.4690 O             1 RES     
   13258 Si         107.0870    27.4220    11.3940 Si            1 RES     
   13259 O          142.1170    20.9600    11.0440 O             1 RES     
   13260 O          141.2090     6.6220     7.2350 O             1 RES     
   13261 Si         103.2300    16.7320     5.8630 Si            1 RES     
   13262 O          125.0490    41.8660     6.4780 O             1 RES     
   13263 Si         101.2730    44.7730    10.5840 Si            1 RES     
   13264 O          102.6120    46.4420     7.0790 O             1 RES     
   13265 O          113.6390    49.8840    10.2120 O             1 RES     
   13266 O          130.6700    34.1810     9.2810 O             1 RES     
   13267 Si         141.1270    42.6480     8.1450 Si            1 RES     
   13268 O          140.0150     6.7220    12.7820 O             1 RES     
   13269 OS         146.5220    14.8410    13.6800 OS            1 RES     
   13270 O          119.5030    37.4470    11.1780 O             1 RES     
   13271 O          140.1420    18.5980     7.4890 O             1 RES     
   13272 O          106.4810    45.2430    12.8770 O             1 RES     
   13273 O          103.6000    44.9390     4.7370 O             1 RES     
   13274 O          140.1310    32.9500    10.1810 O             1 RES     
   13275 Si         126.6890    16.7210     3.0580 Si            1 RES     
   13276 OS         123.2980    16.4810    11.5780 OS            1 RES     
   13277 O          107.4210    33.3580     4.5400 O             1 RES     
   13278 O          147.3600    32.4420     2.6270 O             1 RES     
   13279 O          138.3920    45.2230     3.4960 O             1 RES     
   13280 O          102.3880    18.0540     6.4230 O             1 RES     
   13281 O          125.3700    36.4550     2.4690 O             1 RES     
   13282 O          133.4470    13.1420     3.1830 O             1 RES     
   13283 OS         124.0410    23.1650    13.5520 OS            1 RES     
   13284 O          136.7380    34.8560     9.1230 O             1 RES     
   13285 O          143.6660    35.3340     8.4330 O             1 RES     
   13286 O          139.8860     2.2040    10.2160 O             1 RES     
   13287 OS         149.6020    12.7850    13.2680 OS            1 RES     
   13288 O          133.9400    24.2910     2.7330 O             1 RES     
   13289 O          111.1720    18.9820     5.3790 O             1 RES     
   13290 O          114.0480     9.3350     3.0620 O             1 RES     
   13291 O          142.7380    34.8950     2.7400 O             1 RES     
   13292 O          145.4570    30.3800     2.5570 O             1 RES     
   13293 O          134.2480    35.0790     8.7640 O             1 RES     
   13294 O          114.3800    26.3200    10.8220 O             1 RES     
   13295 Si         105.3480    49.4170    12.7330 Si            1 RES     
   13296 OS         134.2900     4.8140    13.7120 OS            1 RES     
   13297 O          141.5300    11.3990     6.3670 O             1 RES     
   13298 O          146.0850    35.4200     1.9540 O             1 RES     
   13299 Si         111.4050    22.6560     4.4670 Si            1 RES     
   13300 Si         105.4440    46.3220    12.6150 Si            1 RES     
   13301 O          147.9650     3.8760     8.0230 O             1 RES     
   13302 O          122.6100    24.2770     9.1200 O             1 RES     
   13303 O          108.7410     3.2920     5.2770 O             1 RES     
   13304 O          143.1120    13.3500    10.8740 O             1 RES     
   13305 O          140.3440    48.4660     7.4730 O             1 RES     
   13306 OS         103.4810     4.3130    11.9250 OS            1 RES     
   13307 OS         115.4450    37.0720    13.3770 OS            1 RES     
   13308 O          130.5520    32.6320    11.0970 O             1 RES     
   13309 O          114.9040    13.0700     7.7000 O             1 RES     
   13310 Si         143.4640    34.5120     4.1050 Si            1 RES     
   13311 O          137.2750    41.3190     6.3480 O             1 RES     
   13312 O          116.5790     8.1120     3.7590 O             1 RES     
   13313 O          144.9030    17.5790     9.8250 O             1 RES     
   13314 O          142.4170    23.6620    11.1840 O             1 RES     
   13315 Si         111.8210    19.6120     4.0960 Si            1 RES     
   13316 O          104.2290     4.2180     9.5200 O             1 RES     
   13317 O          111.9240     3.5670     7.9060 O             1 RES     
   13318 Si         123.2640    28.3340     4.5650 Si            1 RES     
   13319 Si         110.6550    15.6260     6.9070 Si            1 RES     
   13320 Si         116.6240    47.4700     4.8540 Si            1 RES     
   13321 O          142.4230    43.5150    11.6360 O             1 RES     
   13322 O          144.6300    13.0840     4.7050 O             1 RES     
   13323 O          124.8870    23.7760     8.7800 O             1 RES     
   13324 Si         144.1340    14.4970    10.5390 Si            1 RES     
   13325 O          101.7890    11.3740     9.7400 O             1 RES     
   13326 Si         136.3550    48.1240     7.1680 Si            1 RES     
   13327 O          110.2310    49.0210     4.5630 O             1 RES     
   13328 O          128.3610    24.1750     9.0730 O             1 RES     
   13329 O          120.6590    43.6390     4.2780 O             1 RES     
   13330 Si         119.3750    41.1540     7.3020 Si            1 RES     
   13331 O          130.9560    11.5940     8.6360 O             1 RES     
   13332 OS         118.8340     9.1030    13.2000 OS            1 RES     
   13333 OS         118.5960    17.9340    13.0090 OS            1 RES     
   13334 O          146.4730     1.5150     3.5410 O             1 RES     
   13335 O          112.2390    25.8070     3.0760 O             1 RES     
   13336 O          134.3740    21.7230     2.4900 O             1 RES     
   13337 O          107.1170    49.6020     8.2970 O             1 RES     
   13338 O          107.2630    40.2660     5.4760 O             1 RES     
   13339 Si         105.9150    39.6130     6.0160 Si            1 RES     
   13340 O          103.6420    48.2090     1.7190 O             1 RES     
   13341 Si         109.3260    30.2780     8.7720 Si            1 RES     
   13342 O          121.8550    12.2470     7.6560 O             1 RES     
   13343 Si         132.0220    45.5090     3.4310 Si            1 RES     
   13344 Si         126.3280    36.2830     3.8650 Si            1 RES     
   13345 Si         129.2960    49.2110     4.6370 Si            1 RES     
   13346 Si         109.8470    49.8200    11.0250 Si            1 RES     
   13347 O          123.2350    37.5940     5.5630 O             1 RES     
   13348 O          104.4610     4.4630     6.6550 O             1 RES     
   13349 O          137.6840     4.5540     4.2990 O             1 RES     
   13350 O          108.1540    43.7040     6.2390 O             1 RES     
   13351 O          116.5850     3.8740     7.1990 O             1 RES     
   13352 Si         143.4070    14.0150     4.5790 Si            1 RES     
   13353 O          129.2980    38.8270     7.6790 O             1 RES     
   13354 O          129.3870    21.7350     9.2020 O             1 RES     
   13355 Si         119.1950    49.8120     3.6240 Si            1 RES     
   13356 O          138.6720    38.0910    11.0390 O             1 RES     
   13357 Si         137.7770    35.5230     8.0530 Si            1 RES     
   13358 O          100.8420    23.7000    11.6950 O             1 RES     
   13359 Si         145.3090    46.5390     8.6930 Si            1 RES     
   13360 O          140.1670    32.8790     5.9980 O             1 RES     
   13361 O          149.4920    12.2080     4.3130 O             1 RES     
   13362 Si         143.2470    18.1450     6.8110 Si            1 RES     
   13363 O          101.2610    45.9670     4.7330 O             1 RES     
   13364 O          120.5560     6.5140    11.2540 O             1 RES     
   13365 Si         146.4700    21.9070     5.5860 Si            1 RES     
   13366 O          133.7270     4.7470    11.2180 O             1 RES     
   13367 O          148.7680    39.6940    10.5490 O             1 RES     
   13368 Si         103.4020     1.0840     6.7640 Si            1 RES     
   13369 O          121.3330     1.8710    11.3530 O             1 RES     
   13370 O          135.5060    11.1090     6.4490 O             1 RES     
   13371 O          126.7580     4.1720     8.6430 O             1 RES     
   13372 OS         144.5140    28.1680    12.7980 OS            1 RES     
   13373 O          137.1250     4.6340     6.7400 O             1 RES     
   13374 Si         142.0090     8.7670     3.2600 Si            1 RES     
   13375 Si         146.1000    12.5440     4.5270 Si            1 RES     
   13376 OS         149.5030    40.8540    12.6370 OS            1 RES     
   13377 O          111.7300    11.3630    10.8470 O             1 RES     
   13378 Si         110.5060     3.9990     8.3070 Si            1 RES     
   13379 O          126.4340    42.8610    11.3620 O             1 RES     
   13380 OS         110.2690    20.2770    12.7150 OS            1 RES     
   13381 O          104.0880     6.5780     5.0410 O             1 RES     
   13382 Si         104.7960    45.1350     3.8250 Si            1 RES     
   13383 Si         117.2500    36.7620     5.3500 Si            1 RES     
   13384 O          122.6580    35.0170     8.1920 O             1 RES     
   13385 O          104.7760    11.3850     3.7570 O             1 RES     
   13386 Si         102.1730    30.1660    10.6390 Si            1 RES     
   13387 O          103.1690    11.5260     1.8630 O             1 RES     
   13388 Si         101.5830    19.4170     6.7290 Si            1 RES     
   13389 Si         104.1910    30.4610     4.9740 Si            1 RES     
   13390 O          118.7420    19.2920     3.6040 O             1 RES     
   13391 OS         129.6860    44.8840    11.6080 OS            1 RES     
   13392 Si         121.1900    42.2330     4.8640 Si            1 RES     
   13393 O          130.7800    20.5740     4.9990 O             1 RES     
   13394 O          119.1700    19.3410     6.1340 O             1 RES     
   13395 Si         121.9210     5.8130    11.6850 Si            1 RES     
   13396 O          130.8090    16.9810     1.4340 O             1 RES     
   13397 O          119.2280    34.6030     2.8800 O             1 RES     
   13398 Si         104.1090     5.0000     5.1770 Si            1 RES     
   13399 O          106.3600    18.8940     8.8740 O             1 RES     
   13400 O          106.2940     0.6990     3.4020 O             1 RES     
   13401 O          115.1280     3.2530    11.2180 O             1 RES     
   13402 Si         124.5940    16.9940    10.8350 Si            1 RES     
   13403 Si         112.2190    47.6710     7.2280 Si            1 RES     
   13404 O          137.6340    43.1750     4.6860 O             1 RES     
   13405 OS         140.8040     9.0420    13.7160 OS            1 RES     
   13406 Si         127.3070    45.2360     8.2250 Si            1 RES     
   13407 O          133.9980    22.9060     7.6760 O             1 RES     
   13408 O          145.1190    37.2770     3.0810 O             1 RES     
   13409 O          106.8140    47.4990     9.5180 O             1 RES     
   13410 O          114.2680    43.1000     4.5660 O             1 RES     
   13411 O          141.9410    38.7310    11.1050 O             1 RES     
   13412 O          105.3760    40.2880     7.4140 O             1 RES     
   13413 O          140.1690    43.8500     4.6990 O             1 RES     
   13414 O          127.7100    40.7150     6.5120 O             1 RES     
   13415 O          140.9140    41.0570     8.2180 O             1 RES     
   13416 O          130.0460    40.2740     5.7160 O             1 RES     
   13417 O          117.3190    47.0070     3.5200 O             1 RES     
   13418 Si         132.9580     4.0070    10.1090 Si            1 RES     
   13419 Si         134.8320    34.0840    12.5900 Si            1 RES     
   13420 OS         107.6280    43.2180    13.5850 OS            1 RES     
   13421 Si         147.7210    26.6370     7.6180 Si            1 RES     
   13422 O          130.9160    26.5840     3.7620 O             1 RES     
   13423 O          123.9220    42.3280    12.3240 O             1 RES     
   13424 OS         125.8880    40.5100    13.6960 OS            1 RES     
   13425 O          136.9150    15.8830     8.6820 O             1 RES     
   13426 O          121.1230    47.8380     9.4230 O             1 RES     
   13427 O          121.3940    24.2170     4.6260 O             1 RES     
   13428 O          138.1040    25.3190    12.6240 O             1 RES     
   13429 Si         132.5640    11.8050     8.6730 Si            1 RES     
   13430 O          133.7820    18.0900     7.4940 O             1 RES     
   13431 OS         109.2800    39.5730    11.9060 OS            1 RES     
   13432 O          101.9720     1.2120     6.1930 O             1 RES     
   13433 O          146.1200    47.9080     8.9550 O             1 RES     
   13434 O          115.0400    45.0910     8.8960 O             1 RES     
   13435 O          140.8230    25.8370     1.9520 O             1 RES     
   13436 O          105.1570    33.7200     3.2020 O             1 RES     
   13437 Si         143.0790    47.3120    11.1950 Si            1 RES     
   13438 O          121.8820    18.2290     2.1210 O             1 RES     
   13439 O          109.7870    41.1050     4.7360 O             1 RES     
   13440 O          106.1870    10.7460     5.5900 O             1 RES     
   13441 O          134.0590    49.7060     8.3830 O             1 RES     
   13442 O          146.9490    42.9200     4.2110 O             1 RES     
   13443 O          140.5380    39.4770     3.5280 O             1 RES     
   13444 O          125.0980    48.5330     8.5770 O             1 RES     
   13445 Si         133.8420    45.4100     9.7360 Si            1 RES     
   13446 O          101.0700    29.6330     2.7850 O             1 RES     
   13447 O          131.7480    46.3360     4.7500 O             1 RES     
   13448 O          145.9950    25.4950     4.1030 O             1 RES     
   13449 Si         124.4620    20.2280     4.2260 Si            1 RES     
   13450 O          101.2180    40.0580    10.7650 O             1 RES     
   13451 O          149.7400    19.9800    10.4620 O             1 RES     
   13452 O          136.5850     7.6310    10.1330 O             1 RES     
   13453 O          132.3760    49.8430     3.1810 O             1 RES     
   13454 OS         129.5430    49.3210    12.4220 OS            1 RES     
   13455 Si         138.2170    48.4220    11.3390 Si            1 RES     
   13456 OS         127.3500    36.5040    12.2680 OS            1 RES     
   13457 O          121.5430    31.5880     9.9880 O             1 RES     
   13458 O          134.2360    27.1980    10.1070 O             1 RES     
   13459 Si         128.9930     5.7800     3.1930 Si            1 RES     
   13460 O          116.7080    12.7920     9.7260 O             1 RES     
   13461 OS         108.3120    28.2320    12.0050 OS            1 RES     
   13462 Si         117.5100    25.8340    12.3960 Si            1 RES     
   13463 O          113.1120    45.4360     5.0930 O             1 RES     
   13464 O          108.6580    38.8890     7.8230 O             1 RES     
   13465 O          125.4570    30.2240     5.8030 O             1 RES     
   13466 OS         115.4610    30.9980    12.0200 OS            1 RES     
   13467 OS         120.9830    17.0100    12.4260 OS            1 RES     
   13468 O          102.5790    23.0990     5.9300 O             1 RES     
   13469 Si         123.6140    20.2550     7.2040 Si            1 RES     
   13470 O          112.8580    28.5260    10.3000 O             1 RES     
   13471 Si         149.4750    31.2930     5.8120 Si            1 RES     
   13472 OS         130.2560     7.0160    13.1400 OS            1 RES     
   13473 O          101.0510    42.4950     2.7780 O             1 RES     
   13474 O          147.2880    39.8280     7.4040 O             1 RES     
   13475 Si         118.5590    46.0310     6.8330 Si            1 RES     
   13476 Si         134.5940    12.1700     2.8700 Si            1 RES     
   13477 Si         122.8780    32.3050    10.6540 Si            1 RES     
   13478 O          140.5280    15.8970     7.9670 O             1 RES     
   13479 O          149.8640    21.4210    12.6100 O             1 RES     
   13480 Si         142.2390     3.0160     7.4680 Si            1 RES     
   13481 OS         103.7080    32.8340    13.4430 OS            1 RES     
   13482 OS         102.5300    34.7780    12.6110 OS            1 RES     
   13483 O          149.6160    16.5430    11.2260 O             1 RES     
   13484 Si         127.6710    25.6370    12.2540 Si            1 RES     
   13485 O          109.4760    25.8230     3.2250 O             1 RES     
   13486 OS         116.1200    18.1080    12.2320 OS            1 RES     
   13487 Si         102.5000    36.8800     8.8330 Si            1 RES     
   13488 O          110.4580    19.5140    10.2270 O             1 RES     
   13489 O          131.5910     0.4320    11.3760 O             1 RES     
   13490 O          106.2520     3.0190     2.5250 O             1 RES     
   13491 O          123.7620    20.4510     5.6460 O             1 RES     
   13492 O          106.4440    28.1370     2.6900 O             1 RES     
   13493 Si         132.9600    16.8100     7.8490 Si            1 RES     
   13494 O          145.8420    12.2230     2.9200 O             1 RES     
   13495 Si         132.2490    34.8590     5.3880 Si            1 RES     
   13496 O          143.5730    19.3770     5.9410 O             1 RES     
   13497 O          141.4800    11.2340    10.4330 O             1 RES     
   13498 O          127.1300    19.9590    11.9050 O             1 RES     
   13499 O          143.1120     9.0960     2.1700 O             1 RES     
   13500 O          115.5340    25.4820     8.9350 O             1 RES     
   13501 O          144.5210    17.3100     6.5560 O             1 RES     
   13502 O          113.6740    44.1950     7.0730 O             1 RES     
   13503 OS         114.3730    14.0060    12.1490 OS            1 RES     
   13504 O          115.2320    24.6720     6.5390 O             1 RES     
   13505 O          110.0290     5.5380     8.3100 O             1 RES     
   13506 Si         125.5300    22.6310     7.8570 Si            1 RES     
   13507 O          102.1790    47.9090     3.7720 O             1 RES     
   13508 Si         128.9950    23.7520     5.4270 Si            1 RES     
   13509 Si         103.1650    10.6790    10.1300 Si            1 RES     
   13510 O          116.2890    28.8230     5.1010 O             1 RES     
   13511 O          117.3520    32.1840     7.5460 O             1 RES     
   13512 O          134.8070    39.4040     4.0380 O             1 RES     
   13513 Si         136.5260    42.5080     5.6500 Si            1 RES     
   13514 O          119.9540     6.7290     6.2850 O             1 RES     
   13515 OS         104.6190    12.9200    13.5930 OS            1 RES     
   13516 O          102.3390     4.1420     7.6210 O             1 RES     
   13517 O          141.9660    30.8780     9.8350 O             1 RES     
   13518 Si         135.8660    49.2400     2.9200 Si            1 RES     
   13519 O          108.7220    18.7280     5.6150 O             1 RES     
   13520 OS         114.6250     3.0450    13.8430 OS            1 RES     
   13521 Si         135.9630    37.4350     6.4760 Si            1 RES     
   13522 Si         105.4570    15.2780     7.5350 Si            1 RES     
   13523 OS         127.9400    14.5790    12.6080 OS            1 RES     
   13524 Si         143.3240    41.8310     3.2860 Si            1 RES     
   13525 Si         143.4030    46.2690     6.1900 Si            1 RES     
   13526 Si         129.6460    11.3040     7.7860 Si            1 RES     
   13527 O          136.5260    14.3320    10.5830 O             1 RES     
   13528 O          136.0060    43.7990     6.4990 O             1 RES     
   13529 Si         108.0120    14.4310     6.0600 Si            1 RES     
   13530 O          138.2490    18.3300     8.8490 O             1 RES     
   13531 O          143.7310    19.8350     3.3930 O             1 RES     
   13532 O          127.6680    35.9060     3.0870 O             1 RES     
   13533 O          100.4900    43.5340    10.0180 O             1 RES     
   13534 O          113.6420    35.4190     6.9260 O             1 RES     
   13535 O          112.7540    11.4440     2.6230 O             1 RES     
   13536 Si         112.9910    27.1330    10.9580 Si            1 RES     
   13537 Si         123.8630    45.8620    11.9930 Si            1 RES     
   13538 O          122.2970    48.3590     5.3120 O             1 RES     
   13539 Si         125.9610     5.2320     7.8690 Si            1 RES     
   13540 O          124.2940     1.8930     2.7680 O             1 RES     
   13541 O          116.4760    37.7040     4.3180 O             1 RES     
   13542 OS         122.5200    49.9330    12.4180 OS            1 RES     
   13543 O          138.9960     6.4630     3.1540 O             1 RES     
   13544 Si         110.7150    31.6810    12.0640 Si            1 RES     
   13545 O          134.5510    35.6090    12.8760 O             1 RES     
   13546 Si         140.2900    17.2020     6.6710 Si            1 RES     
   13547 O          100.1750    17.8730     2.5890 O             1 RES     
   13548 O          144.9450    25.3230     1.8730 O             1 RES     
   13549 O          125.4540    16.6890     4.0590 O             1 RES     
   13550 O          121.2320    41.1290     3.7910 O             1 RES     
   13551 O          147.9910    20.1320     7.5240 O             1 RES     
   13552 O          128.9260     1.4310     7.6320 O             1 RES     
   13553 Si         124.1400     6.9550     9.6920 Si            1 RES     
   13554 Si         110.0460    45.8610    12.3140 Si            1 RES     
   13555 O          119.5920    46.6460     7.8140 O             1 RES     
   13556 O          149.2820    13.9790     6.4470 O             1 RES     
   13557 Si         132.7610    30.8370     8.0090 Si            1 RES     
   13558 OS         136.0280    19.1090    11.6440 OS            1 RES     
   13559 O          125.9280    36.2850     9.9660 O             1 RES     
   13560 Si         108.0890     9.1650     3.4690 Si            1 RES     
   13561 O          107.4840    43.0870     8.6110 O             1 RES     
   13562 O          101.1320    27.7500     4.4110 O             1 RES     
   13563 Si         141.8280    48.1740     7.9800 Si            1 RES     
   13564 Si         138.2600     9.3290     6.6120 Si            1 RES     
   13565 O          140.4440    45.0910    11.7210 O             1 RES     
   13566 O          122.1720    28.9880    12.0870 O             1 RES     
   13567 O          122.5850    42.3680     5.5940 O             1 RES     
   13568 O          121.1010    18.6210     4.3820 O             1 RES     
   13569 O          128.6020    25.5380    10.9880 O             1 RES     
   13570 Si         145.1290    16.0420     5.8950 Si            1 RES     
   13571 OS         148.0560    45.4530    12.2910 OS            1 RES     
   13572 O          114.1680    24.4350     1.8690 O             1 RES     
   13573 O          113.8490    13.9900     5.4690 O             1 RES     
   13574 Si         141.6930    22.5180     5.2840 Si            1 RES     
   13575 O          107.7250    10.1780     9.7690 O             1 RES     
   13576 O          115.1780    41.4640     6.7210 O             1 RES     
   13577 O          100.5540    24.3760     6.7230 O             1 RES     
   13578 Si         138.2510    39.6490    11.1770 Si            1 RES     
   13579 O          113.2470     4.9020     3.6700 O             1 RES     
   13580 O          137.0490     8.3670     5.3170 O             1 RES     
   13581 O          118.5340     9.5700     4.7320 O             1 RES     
   13582 O          128.1010     7.5450     8.9600 O             1 RES     
   13583 O          104.4450    49.1510     3.9220 O             1 RES     
   13584 Si         134.1500     0.2340     6.9910 Si            1 RES     
   13585 O          128.9690     0.5530     5.4100 O             1 RES     
   13586 O          125.2910    45.2430    11.4690 O             1 RES     
   13587 O          148.5810     0.0460    12.8100 O             1 RES     
   13588 O          109.1010    41.7060     7.7430 O             1 RES     
   13589 OS         148.7460    16.5420    13.5350 OS            1 RES     
   13590 O          102.8580    31.2520    11.5010 O             1 RES     
   13591 O          128.9490    32.9340     4.0500 O             1 RES     
   13592 Si         146.1820    13.6870    12.6920 Si            1 RES     
   13593 O          122.4060    27.0210     4.5720 O             1 RES     
   13594 O          132.4200    22.4380     3.8130 O             1 RES     
   13595 Si         119.3320    37.9810     7.2560 Si            1 RES     
   13596 O          113.0730    33.9140    13.3170 O             1 RES     
   13597 OS         101.1850    49.5760    12.8470 OS            1 RES     
   13598 Si         123.2730    36.9670    11.8210 Si            1 RES     
   13599 O          125.0460    37.2640     7.3890 O             1 RES     
   13600 O          114.9480    19.2350     6.0250 O             1 RES     
   13601 O          120.8760    30.5270     2.4170 O             1 RES     
   13602 Si         147.2880    48.5670     9.7450 Si            1 RES     
   13603 Si         139.1580     5.4970    12.3780 Si            1 RES     
   13604 O          106.1050    35.7080     4.4190 O             1 RES     
   13605 OS         136.5980     2.3970    12.3880 OS            1 RES     
   13606 Si         115.4760    20.6070     6.7620 Si            1 RES     
   13607 O          114.5900    33.3570    11.3350 O             1 RES     
   13608 Si         117.0470     0.9500    12.4370 Si            1 RES     
   13609 O          102.3170     7.2640     8.3850 O             1 RES     
   13610 O          109.0200    36.3940     7.3610 O             1 RES     
   13611 O          100.4130    36.1710    11.9020 O             1 RES     
   13612 O          107.3160    17.2230    10.7510 O             1 RES     
   13613 O          148.3180    49.4250     8.8890 O             1 RES     
   13614 Si         146.3050     7.2390    11.5810 Si            1 RES     
   13615 Si         100.9870    22.4530    12.7220 Si            1 RES     
   13616 O          126.4740    16.1000     1.6920 O             1 RES     
   13617 O          108.1300     3.5870    11.1090 O             1 RES     
   13618 OS         143.5260     5.4500    13.6310 OS            1 RES     
   13619 O          112.0960     9.1050     6.9030 O             1 RES     
   13620 Si         134.7290    19.2200    10.7460 Si            1 RES     
   13621 O          109.8690    36.6850     4.6570 O             1 RES     
   13622 O          141.9290    17.3280     6.3350 O             1 RES     
   13623 O          109.4350    46.6280     4.5100 O             1 RES     
   13624 O          140.4240     8.4670     2.8820 O             1 RES     
   13625 Si         126.2590     7.5200    11.9100 Si            1 RES     
   13626 O          132.8230    46.4750     9.3520 O             1 RES     
   13627 Si         106.6160    22.6860     3.5980 Si            1 RES     
   13628 O          127.6590    26.8770     8.9330 O             1 RES     
   13629 Si         115.6720    43.1520     3.8470 Si            1 RES     
   13630 O          144.8030    25.8370     6.1180 O             1 RES     
   13631 O          112.3800     0.3960     4.1410 O             1 RES     
   13632 O          139.3280    74.2340     3.1580 O             1 RES     
   13633 O          108.4580    98.5390     6.1960 O             1 RES     
   13634 O          109.9370    84.3450     9.7080 O             1 RES     
   13635 O          127.9310    70.9500     2.9650 O             1 RES     
   13636 Si         134.0510    71.9090     6.4800 Si            1 RES     
   13637 O          131.4160    67.1410     7.9150 O             1 RES     
   13638 O          107.4230    75.4710     6.7820 O             1 RES     
   13639 O          147.1120    53.1090     5.5400 O             1 RES     
   13640 O          132.8980    57.8050     9.9470 O             1 RES     
   13641 Si         138.7810    61.9610     4.5220 Si            1 RES     
   13642 O          128.2200    57.4620    11.4690 O             1 RES     
   13643 O          141.5420    72.2820     9.1930 O             1 RES     
   13644 O          131.7550    51.9730    13.4760 O             1 RES     
   13645 Si         101.2140    76.3900     3.6200 Si            1 RES     
   13646 O          132.1660    92.1050     9.0280 O             1 RES     
   13647 O          126.2930    96.3710     7.6460 O             1 RES     
   13648 O          117.5360    75.3840     7.5700 O             1 RES     
   13649 OS         145.4190    83.1370    12.1080 OS            1 RES     
   13650 Si         137.4340    54.1390     8.1680 Si            1 RES     
   13651 O          135.4360    82.8570     8.7280 O             1 RES     
   13652 O          123.7070    74.5910     4.9950 O             1 RES     
   13653 O          109.6650    81.9680     5.7910 O             1 RES     
   13654 Si         145.4860    72.8860    10.2000 Si            1 RES     
   13655 Si         119.9930    68.2280    12.3350 Si            1 RES     
   13656 O          124.5250    80.7410     7.9630 O             1 RES     
   13657 O          132.6640    91.9310    11.4990 O             1 RES     
   13658 O          106.5590    77.3500     5.0100 O             1 RES     
   13659 Si         108.9520    83.0600     4.9870 Si            1 RES     
   13660 O          140.1130    75.9410     9.7650 O             1 RES     
   13661 O          120.6210    87.5380     6.4480 O             1 RES     
   13662 Si         124.6920    79.4830     6.9840 Si            1 RES     
   13663 Si         119.3940    65.7420     5.6330 Si            1 RES     
   13664 O          129.8760    61.7970     6.2890 O             1 RES     
   13665 O          137.9360    80.6050     3.1040 O             1 RES     
   13666 O          149.3000    93.1650     4.7740 O             1 RES     
   13667 O          149.2410    65.4300     8.7790 O             1 RES     
   13668 Si         116.0040    75.6960     7.5250 Si            1 RES     
   13669 O          110.2360    53.4110     9.6970 O             1 RES     
   13670 O          143.4210    78.2730     6.3950 O             1 RES     
   13671 O          100.1870    90.6520     3.9740 O             1 RES     
   13672 O          111.9330    86.8760     3.0060 O             1 RES     
   13673 Si         143.8870    50.3740     7.3530 Si            1 RES     
   13674 O          123.3580    62.3080    11.7210 O             1 RES     
   13675 Si         125.3870    91.5760    12.4880 Si            1 RES     
   13676 O          146.0860    71.2950     7.0170 O             1 RES     
   13677 O          121.7340    56.6160     4.3500 O             1 RES     
   13678 O          123.6280    88.4180    11.4120 O             1 RES     
   13679 O          148.4240    80.3200     6.4430 O             1 RES     
   13680 O          114.8410    73.7240    11.1040 O             1 RES     
   13681 O          113.8720    57.7270     8.0010 O             1 RES     
   13682 O          142.9320    85.6550     5.0210 O             1 RES     
   13683 Si         114.9580    72.2990    11.7660 Si            1 RES     
   13684 Si         101.3660    73.9370     5.4410 Si            1 RES     
   13685 O          102.1070    95.4170     9.4240 O             1 RES     
   13686 Si         123.7100    78.9220    12.3920 Si            1 RES     
   13687 O          138.9530    85.4330    11.0830 O             1 RES     
   13688 O          118.9750    87.1960     8.6150 O             1 RES     
   13689 O          120.4090    99.8920     4.6600 O             1 RES     
   13690 OS         145.0010    86.9310    13.7540 OS            1 RES     
   13691 O          146.3590    88.6730     9.4100 O             1 RES     
   13692 Si         130.3630    92.9570     3.6210 Si            1 RES     
   13693 O          122.5390    50.6400     1.6870 O             1 RES     
   13694 Si         147.8950    93.8810     5.0840 Si            1 RES     
   13695 O          121.7380    95.4450     8.6830 O             1 RES     
   13696 O          129.7260    84.7920    11.3840 O             1 RES     
   13697 O          128.0750    55.0820    10.5820 O             1 RES     
   13698 Si         124.9300    97.1050     7.6980 Si            1 RES     
   13699 O          149.2420    97.3080     4.1190 O             1 RES     
   13700 O          130.4550    57.1310    10.0400 O             1 RES     
   13701 Si         123.1700    57.2460     4.4180 Si            1 RES     
   13702 O          122.6910    90.0080     9.8390 O             1 RES     
   13703 O          109.2430    84.4260     5.6130 O             1 RES     
   13704 Si         135.9510    95.0840     7.4200 Si            1 RES     
   13705 O          113.0020    64.6690    10.0680 O             1 RES     
   13706 Si         122.3030    68.2180     3.4300 Si            1 RES     
   13707 O          138.6920    94.6600     9.9650 O             1 RES     
   13708 Si         105.3750    86.6310     5.4460 Si            1 RES     
   13709 O          131.6610    56.9240     7.6810 O             1 RES     
   13710 OS         102.1040    94.4950    11.9170 OS            1 RES     
   13711 OS         110.2660    53.2190    12.0870 OS            1 RES     
   13712 O          133.2710    87.6820     4.3090 O             1 RES     
   13713 OS         102.5230    87.1640    12.4500 OS            1 RES     
   13714 O          134.7990    91.8550    10.2240 O             1 RES     
   13715 Si         120.4020    95.1770     4.5950 Si            1 RES     
   13716 Si         130.0820    67.9670     7.9450 Si            1 RES     
   13717 O          130.5780    93.3520     7.2540 O             1 RES     
   13718 O          119.3900    82.4830    10.8440 O             1 RES     
   13719 O          138.7970    97.0110    10.9690 O             1 RES     
   13720 Si         139.4990    69.3740     8.7080 Si            1 RES     
   13721 O          142.9490    88.5760     2.4350 O             1 RES     
   13722 Si         103.8240    79.5800     7.9930 Si            1 RES     
   13723 O          137.3440    58.4030     7.9400 O             1 RES     
   13724 O          115.1020    87.0500     8.0510 O             1 RES     
   13725 O          109.6790    53.5510     2.8980 O             1 RES     
   13726 O          131.5790    93.9430     3.5960 O             1 RES     
   13727 Si         135.8900    62.3490     5.6510 Si            1 RES     
   13728 O          104.2640    59.0260     4.7800 O             1 RES     
   13729 O          144.0270    65.3980     4.9560 O             1 RES     
   13730 OS         138.3090    83.0360    11.9640 OS            1 RES     
   13731 Si         132.8510    79.5180    12.2650 Si            1 RES     
   13732 O          122.9350    91.4540     7.9210 O             1 RES     
   13733 O          130.0370    99.7050     3.3810 O             1 RES     
   13734 Si         103.5000    88.7530     4.4320 Si            1 RES     
   13735 O          138.2010    60.6540     7.5920 O             1 RES     
   13736 O          109.7210    94.1600     8.4230 O             1 RES     
   13737 O          138.4650    75.9060     8.1340 O             1 RES     
   13738 O          106.0940    66.2190     8.6880 O             1 RES     
   13739 O          141.3560    86.3370    10.0850 O             1 RES     
   13740 Si         115.1630    85.7140     7.3010 Si            1 RES     
   13741 OS         107.6490    66.0520    13.1470 OS            1 RES     
   13742 O          131.1850    57.8320     5.0870 O             1 RES     
   13743 O          124.1550    96.1000     8.5750 O             1 RES     
   13744 O          108.2810    56.0230    12.1260 O             1 RES     
   13745 O          145.3310    74.4320     9.8760 O             1 RES     
   13746 Si         125.6960    87.4590     8.8510 Si            1 RES     
   13747 OS         102.2070    63.1450    12.8520 OS            1 RES     
   13748 O          149.6470    65.8970     1.3740 O             1 RES     
   13749 Si         115.9380    82.7240     8.1010 Si            1 RES     
   13750 Si         107.5200    94.1720    12.3700 Si            1 RES     
   13751 O          130.4440    73.0700     5.2210 O             1 RES     
   13752 O          146.7050    97.7370     5.0130 O             1 RES     
   13753 O          111.4490    57.4630     8.7760 O             1 RES     
   13754 Si         123.7950    51.6760     6.8390 Si            1 RES     
   13755 O          102.8600    80.0720     9.2260 O             1 RES     
   13756 Si         121.9800    80.9280     3.3940 Si            1 RES     
   13757 O          124.3500    68.9630     7.6670 O             1 RES     
   13758 O          108.7010    66.3040     2.2870 O             1 RES     
   13759 Si         122.5320    75.0840     4.1390 Si            1 RES     
   13760 O          103.2820    59.1310    10.0050 O             1 RES     
   13761 Si         118.5560    83.6670    11.4620 Si            1 RES     
   13762 O          139.1110    71.6780     2.3750 O             1 RES     
   13763 O          117.6690    79.6720     7.1160 O             1 RES     
   13764 Si         120.2150    56.4960     4.7090 Si            1 RES     
   13765 Si         126.0590    90.8180     5.8490 Si            1 RES     
   13766 O          128.9650    88.7850    10.2090 O             1 RES     
   13767 Si         149.4280    50.5340     8.6050 Si            1 RES     
   13768 O          104.7720    71.7590     6.4550 O             1 RES     
   13769 O          124.2530    83.2980     7.8670 O             1 RES     
   13770 Si         110.7020    80.7490     6.1000 Si            1 RES     
   13771 O          142.6700    55.6730     5.2900 O             1 RES     
   13772 Si         114.2700    99.9640    11.6860 Si            1 RES     
   13773 O          106.6100    71.1300    10.0300 O             1 RES     
   13774 O          149.4510    61.8250    10.8060 O             1 RES     
   13775 O          141.1260    63.8420     9.8870 O             1 RES     
   13776 O          145.6810    65.0260     7.0230 O             1 RES     
   13777 O          146.7460    76.3010     8.8480 O             1 RES     
   13778 O          127.8520    80.1570     5.1630 O             1 RES     
   13779 O          114.0080    66.7380     5.3380 O             1 RES     
   13780 O          127.0560    91.8310     1.9940 O             1 RES     
   13781 Si         113.3490    74.6240     3.2190 Si            1 RES     
   13782 O          125.9020    84.8710     4.4290 O             1 RES     
   13783 O          120.1230    54.8830     4.5910 O             1 RES     
   13784 O          134.1470    65.1210    11.3000 O             1 RES     
   13785 Si         101.3730    72.1510     2.9220 Si            1 RES     
   13786 O          149.7900    75.9860     3.1710 O             1 RES     
   13787 O          132.2150    77.3290     8.7490 O             1 RES     
   13788 O          142.4190    63.5680     5.7240 O             1 RES     
   13789 O          137.2140    55.2770     9.2580 O             1 RES     
   13790 OS         100.6460    77.9250    13.3760 OS            1 RES     
   13791 Si         100.8110    69.1590     9.6580 Si            1 RES     
   13792 O          130.5330    68.1760     4.0030 O             1 RES     
   13793 O          141.9850    83.4010     8.8860 O             1 RES     
   13794 OS         106.9590    88.8170    12.1150 OS            1 RES     
   13795 O          123.5630    78.8290     6.0310 O             1 RES     
   13796 Si         136.8960    56.1620    10.4730 Si            1 RES     
   13797 OS         130.9060    92.8970    12.8760 OS            1 RES     
   13798 O          122.3450    83.7720    10.4280 O             1 RES     
   13799 Si         138.7720    99.4470     3.8340 Si            1 RES     
   13800 Si         120.6320    78.6790    11.6590 Si            1 RES     
   13801 O          129.1060    59.9070     8.0490 O             1 RES     
   13802 O          104.3300    66.1090     6.8260 O             1 RES     
   13803 Si         146.1970    58.4660     8.6420 Si            1 RES     
   13804 O          131.4770    70.9200    10.3250 O             1 RES     
   13805 O          123.6740    63.7090     7.1970 O             1 RES     
   13806 O          125.7850    66.0530    11.2930 O             1 RES     
   13807 Si         125.0720    52.0650    11.2810 Si            1 RES     
   13808 O          106.5130    62.3630    10.0980 O             1 RES     
   13809 O          131.2430    76.1310     6.4910 O             1 RES     
   13810 O          129.5560    93.4330     4.9100 O             1 RES     
   13811 O          105.5290    79.6980     4.5780 O             1 RES     
   13812 Si         112.1290    79.9390     9.9840 Si            1 RES     
   13813 Si         142.9810    92.5610    10.5600 Si            1 RES     
   13814 O          100.0220    64.5270     4.1100 O             1 RES     
   13815 O          127.5270    56.1070     3.8020 O             1 RES     
   13816 O          112.7250    53.7090    12.4850 O             1 RES     
   13817 Si         109.4180    52.8310    10.8570 Si            1 RES     
   13818 O          131.6600    86.1520    10.5500 O             1 RES     
   13819 Si         118.5290    81.0570     7.4200 Si            1 RES     
   13820 OS         122.9530    95.1110    10.9490 OS            1 RES     
   13821 O          147.5310    78.1790     7.5710 O             1 RES     
   13822 O          122.0970    52.9560     3.5790 O             1 RES     
   13823 O          123.9750    97.1680     6.4300 O             1 RES     
   13824 Si         135.6350    57.7970     5.0950 Si            1 RES     
   13825 Si         115.2560    75.1420    10.4270 Si            1 RES     
   13826 O          118.6580    85.0890    10.6360 O             1 RES     
   13827 OS         120.2660    87.5690    13.8000 OS            1 RES     
   13828 O          129.7200    68.0810    12.3670 O             1 RES     
   13829 O          126.0000    69.8770     4.2940 O             1 RES     
   13830 O          141.0400    52.2550     8.1180 O             1 RES     
   13831 Si         126.5050    59.2230     5.5330 Si            1 RES     
   13832 O          136.9120    90.4130    10.7990 O             1 RES     
   13833 O          120.7340    65.2520     4.9050 O             1 RES     
   13834 O          119.4960    68.3400    10.8120 O             1 RES     
   13835 O          122.9330    52.9620     7.0930 O             1 RES     
   13836 O          125.5590    73.5770     6.4960 O             1 RES     
   13837 O          134.9440    98.6380    11.0810 O             1 RES     
   13838 Si         125.5740    69.7440    11.9030 Si            1 RES     
   13839 O          100.6750    80.5180    10.5840 O             1 RES     
   13840 Si         119.9420    56.1710     7.7720 Si            1 RES     
   13841 Si         123.1990    62.0790     3.8050 Si            1 RES     
   13842 O          130.8380    55.4450     5.9680 O             1 RES     
   13843 O          145.9100    57.5290     7.3860 O             1 RES     
   13844 Si         103.6840    62.8230    12.3480 Si            1 RES     
   13845 OS         118.8100    94.6700    12.2700 OS            1 RES     
   13846 Si         138.0060    61.3040     9.0220 Si            1 RES     
   13847 O          120.9740    86.1480     4.3800 O             1 RES     
   13848 O          133.5230    95.4890     2.9160 O             1 RES     
   13849 O          123.1790    81.3580     2.5010 O             1 RES     
   13850 Si         109.2410    95.5480     3.3790 Si            1 RES     
   13851 Si         134.3650    55.5360    12.3320 Si            1 RES     
   13852 Si         139.6160    75.8090     3.1450 Si            1 RES     
   13853 O          128.8550    66.9830     8.2740 O             1 RES     
   13854 Si         110.8730    75.4460     9.4090 Si            1 RES     
   13855 OS         102.9380    77.3670    13.5110 OS            1 RES     
   13856 OS         133.3940    95.2420    13.7960 OS            1 RES     
   13857 Si         145.8650    81.8970     2.7980 Si            1 RES     
   13858 O          143.3990    55.4610    10.9030 O             1 RES     
   13859 O          145.3100    82.5620     6.9560 O             1 RES     
   13860 O          121.8170    95.9040     5.1190 O             1 RES     
   13861 O          142.0710    97.7170     9.4400 O             1 RES     
   13862 Si         135.4420    82.0520     7.3890 Si            1 RES     
   13863 O          145.1310    64.1860     9.3770 O             1 RES     
   13864 O          113.7230    51.3210    12.2550 O             1 RES     
   13865 O          128.4180    62.2310     8.3410 O             1 RES     
   13866 O          148.1150    53.6560     3.2300 O             1 RES     
   13867 O          124.3630    71.2010     2.9820 O             1 RES     
   13868 Si         100.4750    89.2730     4.6870 Si            1 RES     
   13869 Si         149.8290    67.2240    12.6160 Si            1 RES     
   13870 O          111.8830    92.9360     5.5030 O             1 RES     
   13871 O          148.1000    68.5900     5.2710 O             1 RES     
   13872 Si         113.5760    95.1310     8.3190 Si            1 RES     
   13873 O          107.9420    79.6150     8.5510 O             1 RES     
   13874 O          119.4490    66.2870     9.2650 O             1 RES     
   13875 O          121.8720    83.0660     6.7000 O             1 RES     
   13876 Si         128.1680    82.5160     7.8900 Si            1 RES     
   13877 O          109.3260    64.7530     6.8240 O             1 RES     
   13878 Si         133.4080    73.7200     8.8770 Si            1 RES     
   13879 O          122.0920    70.6210     7.5910 O             1 RES     
   13880 O          103.4620    56.4040    10.5250 O             1 RES     
   13881 Si         137.3120    74.5400    11.4470 Si            1 RES     
   13882 O          126.2140    75.8960    11.8030 O             1 RES     
   13883 Si         139.0690    67.2800     3.3630 Si            1 RES     
   13884 O          138.6180    84.2620     4.5350 O             1 RES     
   13885 Si         137.6040    84.2130     3.3530 Si            1 RES     
   13886 O          100.7970    92.5890     7.7990 O             1 RES     
   13887 O          122.2110    63.2820     3.8790 O             1 RES     
   13888 O          103.3010    92.0190     7.2270 O             1 RES     
   13889 O          142.6960    90.5310     3.8590 O             1 RES     
   13890 Si         117.0000    55.1450     8.0970 Si            1 RES     
   13891 O          147.1890    75.8760     6.4000 O             1 RES     
   13892 O          142.6210    68.3830    10.7470 O             1 RES     
   13893 O          108.0760    65.1190     4.6190 O             1 RES     
   13894 Si         145.0950    88.4250    10.3500 Si            1 RES     
   13895 O          145.8150    50.0320     1.4580 O             1 RES     
   13896 Si         112.9980    81.8610     7.7030 Si            1 RES     
   13897 O          118.4430    68.7220     8.4660 O             1 RES     
   13898 O          124.4370    66.7460     6.5860 O             1 RES     
   13899 Si         114.9540    62.9100     6.0530 Si            1 RES     
   13900 O          114.9650    68.7910     9.9840 O             1 RES     
   13901 O          137.9870    94.9430    12.3720 O             1 RES     
   13902 Si         124.7280    76.1950    11.4530 Si            1 RES     
   13903 O          147.3630    82.9210     8.3330 O             1 RES     
   13904 O          132.0960    66.7640    11.4900 O             1 RES     
   13905 O          134.8860    97.1780    12.9650 O             1 RES     
   13906 O          112.7500    65.3170     3.5650 O             1 RES     
   13907 O          135.1600    91.7720     5.1760 O             1 RES     
   13908 O          146.3020    93.3040     9.1230 O             1 RES     
   13909 O          121.4630    64.5980     8.6160 O             1 RES     
   13910 O          138.8250    97.9060     3.5560 O             1 RES     
   13911 O          133.4650    51.9990     3.7860 O             1 RES     
   13912 O          127.3030    64.6550     8.4230 O             1 RES     
   13913 O          124.3010    77.5890    11.8080 O             1 RES     
   13914 O          118.4060    97.3430    11.6440 O             1 RES     
   13915 O          106.4100    69.6400     5.3440 O             1 RES     
   13916 OS         119.7470    78.5850    12.9640 OS            1 RES     
   13917 OS         109.7490    97.1610    13.2240 OS            1 RES     
   13918 Si         148.5780    69.7920     6.0330 Si            1 RES     
   13919 Si         113.2120    56.2720     4.4060 Si            1 RES     
   13920 Si         138.8670    93.7710     3.9090 Si            1 RES     
   13921 O          116.1730    85.9180     6.1790 O             1 RES     
   13922 Si         146.9800    52.9410     3.9820 Si            1 RES     
   13923 O          116.4210    98.9450     5.2640 O             1 RES     
   13924 O          149.7980    88.4060    12.4830 O             1 RES     
   13925 Si         128.4320    50.9860     9.0180 Si            1 RES     
   13926 O          103.7910    69.2340    12.2220 O             1 RES     
   13927 Si         137.3810    64.3720     9.2660 Si            1 RES     
   13928 O          139.6090    67.1140     4.7570 O             1 RES     
   13929 O          118.9850    73.2030     4.9360 O             1 RES     
   13930 O          133.3830    79.5890     8.6530 O             1 RES     
   13931 Si         106.5040    84.3540     3.6440 Si            1 RES     
   13932 OS         110.6390    91.7210    12.3230 OS            1 RES     
   13933 Si         121.8010    73.4750    10.1490 Si            1 RES     
   13934 O          132.1880    52.9370    11.0530 O             1 RES     
   13935 O          148.2850    87.1040     8.2830 O             1 RES     
   13936 Si         123.6110    92.4730     6.8000 Si            1 RES     
   13937 Si         139.1900    74.7630     8.9630 Si            1 RES     
   13938 OS         123.5860    97.4960    12.0860 OS            1 RES     
   13939 OS         135.6550    94.6830    12.9390 OS            1 RES     
   13940 O          138.8090    60.5150     5.0240 O             1 RES     
   13941 Si         107.5450    67.4300    12.2700 Si            1 RES     
   13942 O          111.9280    60.0130     4.3980 O             1 RES     
   13943 O          147.4460    62.9720    12.0550 O             1 RES     
   13944 O          116.4350    51.3450     6.4240 O             1 RES     
   13945 Si         110.3130    61.8920    10.4020 Si            1 RES     
   13946 O          123.7810    96.8420     3.9060 O             1 RES     
   13947 OS         132.3080    90.5490    13.5250 OS            1 RES     
   13948 Si         114.6130    89.8490    10.8620 Si            1 RES     
   13949 Si         109.0190    54.2510     4.0900 Si            1 RES     
   13950 O          125.1120    64.6520     5.4390 O             1 RES     
   13951 Si         144.0140    86.7140     7.7550 Si            1 RES     
   13952 OS         148.1550    60.7840    12.7930 OS            1 RES     
   13953 OS         114.5800    60.1050    13.9600 OS            1 RES     
   13954 OS         130.2540    65.4520    12.2440 OS            1 RES     
   13955 O          115.1430    89.4530     9.4470 O             1 RES     
   13956 Si         126.1430    53.1790     5.5820 Si            1 RES     
   13957 O          100.4530    53.1480     6.2690 O             1 RES     
   13958 O          146.8350    99.3910    10.9860 O             1 RES     
   13959 O          104.0590    86.5990     8.4880 O             1 RES     
   13960 Si         121.9700    64.8470     4.0010 Si            1 RES     
   13961 Si         105.4830    71.8870    10.9520 Si            1 RES     
   13962 O          112.9610    66.0130    12.0790 O             1 RES     
   13963 Si         118.5110    95.7810    11.1700 Si            1 RES     
   13964 OS         126.1120    56.5300    13.1560 OS            1 RES     
   13965 O          128.9550    61.6580     3.8450 O             1 RES     
   13966 O          116.8570    54.4800     9.5660 O             1 RES     
   13967 O          112.2070    81.3180     6.4880 O             1 RES     
   13968 Si         103.6610    97.9890     3.2660 Si            1 RES     
   13969 O          102.3810    88.3960     9.2630 O             1 RES     
   13970 O          116.4770    93.0330     5.4360 O             1 RES     
   13971 O          108.4010    87.8400     9.9930 O             1 RES     
   13972 Si         135.2360    76.0960     9.8200 Si            1 RES     
   13973 O          128.3920    95.5220     9.3080 O             1 RES     
   13974 Si         108.7650    59.9060     8.6400 Si            1 RES     
   13975 Si         131.1860    90.2060     4.6190 Si            1 RES     
   13976 O          133.9620    59.7730    11.3540 O             1 RES     
   13977 Si         129.9290    88.9810    11.4220 Si            1 RES     
   13978 O          146.4470    95.4640     8.5700 O             1 RES     
   13979 O          103.8460    99.6770    12.4230 O             1 RES     
   13980 O          111.9350    76.3070    10.1220 O             1 RES     
   13981 O          134.7310    87.0780     7.2970 O             1 RES     
   13982 O          109.9940    82.7270     3.7510 O             1 RES     
   13983 OS         145.7050    62.9940    13.9360 OS            1 RES     
   13984 Si         118.4620    69.7870     7.3990 Si            1 RES     
   13985 O          111.2240    85.5340     6.4810 O             1 RES     
   13986 O          143.9110    60.6470     6.2750 O             1 RES     
   13987 O          145.5200    86.9650     7.4450 O             1 RES     
   13988 O          142.3600    97.1630     6.9220 O             1 RES     
   13989 OS         121.7830    63.9840    12.3470 OS            1 RES     
   13990 Si         138.2540    93.6100     8.9210 Si            1 RES     
   13991 O          103.3950    61.3600    11.7150 O             1 RES     
   13992 Si         106.1610    54.5190     2.9570 Si            1 RES     
   13993 Si         135.9990    54.7990     5.4630 Si            1 RES     
   13994 O          140.4460    58.8940    11.2490 O             1 RES     
   13995 Si         136.3780    58.7640     9.1110 Si            1 RES     
   13996 Si         101.8180    77.6390    12.3530 Si            1 RES     
   13997 OS         147.8010    87.1470    12.8070 OS            1 RES     
   13998 OS         111.1920    95.1340    13.1630 OS            1 RES     
   13999 O          148.1120    97.4380    10.4120 O             1 RES     
   14000 O          139.5130    70.8610     8.2070 O             1 RES     
   14001 OS         107.0610    53.7190    13.2660 OS            1 RES     
   14002 O          126.4280    84.1630    11.4740 O             1 RES     
   14003 Si         133.3770    53.5300     3.4640 Si            1 RES     
   14004 O          136.1180    98.2970     8.6890 O             1 RES     
   14005 O          146.7490    67.9500     3.0500 O             1 RES     
   14006 O          141.6860    92.9810     6.6740 O             1 RES     
   14007 O          137.4760    62.5040     5.3120 O             1 RES     
   14008 Si         124.7900    63.2300     6.2040 Si            1 RES     
   14009 OS         138.1530    54.6200    13.3710 OS            1 RES     
   14010 O          109.6770    82.6350    11.3050 O             1 RES     
   14011 Si         133.9690    72.8690     3.4780 Si            1 RES     
   14012 O          143.9820    87.9620     9.3120 O             1 RES     
   14013 Si         112.2740    84.9140     7.4100 Si            1 RES     
   14014 O          125.0010    68.4920    11.1670 O             1 RES     
   14015 O          102.7600    74.2130    10.4020 O             1 RES     
   14016 O          142.9580    76.1660    11.8200 O             1 RES     
   14017 O          145.1440    64.4450    11.7480 O             1 RES     
   14018 Si         140.0110    89.8830     8.6920 Si            1 RES     
   14019 OS         104.8870    80.6080    12.7110 OS            1 RES     
   14020 O          136.7400    79.8300     5.2550 O             1 RES     
   14021 Si         116.6150    94.7830     8.8650 Si            1 RES     
   14022 O          114.1100    61.8590     9.6930 O             1 RES     
   14023 O          102.0850    94.1560     6.4310 O             1 RES     
   14024 OS         139.2760    99.2800    12.1610 OS            1 RES     
   14025 Si         139.0470    95.4520    11.2560 Si            1 RES     
   14026 Si         146.1120    92.6170    10.5030 Si            1 RES     
   14027 Si         115.9470    52.3680     7.5480 Si            1 RES     
   14028 O          109.2800    73.5000     7.5290 O             1 RES     
   14029 OS         140.7000    84.4120    12.2590 OS            1 RES     
   14030 OS         137.3970    99.2820    10.3440 OS            1 RES     
   14031 O          127.2990    59.9210     4.3170 O             1 RES     
   14032 O          147.5000    67.2100     9.6140 O             1 RES     
   14033 O          110.7770    90.0520     8.7900 O             1 RES     
   14034 Si         124.9320    74.8970     5.9010 Si            1 RES     
   14035 Si         146.2280    86.8130    12.7060 Si            1 RES     
   14036 OS         117.5710    57.1020    13.6460 OS            1 RES     
   14037 O          103.9580    81.7320     3.9260 O             1 RES     
   14038 O          130.0340    98.1820     5.4990 O             1 RES     
   14039 Si         102.3960    50.3410    12.1610 Si            1 RES     
   14040 Si         101.3740    74.8670    10.7920 Si            1 RES     
   14041 O          132.8560    64.0160     5.4360 O             1 RES     
   14042 O          105.0360    82.8140    11.2680 O             1 RES     
   14043 O          104.3950    51.0660     5.6080 O             1 RES     
   14044 Si         111.4700    64.6680     9.6650 Si            1 RES     
   14045 O          145.4260    62.4360     7.7160 O             1 RES     
   14046 Si         139.5160    83.9090    11.3150 Si            1 RES     
   14047 O          142.7260    95.9040    11.9400 O             1 RES     
   14048 OS         121.7830    55.7500    13.3060 OS            1 RES     
   14049 O          103.4140    90.7410     9.3500 O             1 RES     
   14050 O          134.3490    82.3610     3.7950 O             1 RES     
   14051 O          104.0670    95.7170    13.0380 O             1 RES     
   14052 O          116.5320    75.6030    11.2150 O             1 RES     
   14053 O          108.3430    90.2150     9.8420 O             1 RES     
   14054 O          104.0360    75.3720     8.7120 O             1 RES     
   14055 O          130.6800    95.8030     9.3590 O             1 RES     
   14056 O          110.0900    60.7120     6.1550 O             1 RES     
   14057 O          119.1940    67.1920     5.2050 O             1 RES     
   14058 O          137.1160    98.2080    12.3700 O             1 RES     
   14059 Si         111.3670    66.3290    12.1810 Si            1 RES     
   14060 O          135.5170    99.9290     1.5800 O             1 RES     
   14061 O          103.1960    63.4610     3.7560 O             1 RES     
   14062 O          104.0060    80.3250     6.5690 O             1 RES     
   14063 Si         139.5480    84.3190     5.9030 Si            1 RES     
   14064 Si         119.5940    68.6870     4.7920 Si            1 RES     
   14065 OS         115.5400    61.8900    12.5810 OS            1 RES     
   14066 Si         103.2760    72.0430     6.8940 Si            1 RES     
   14067 O          104.7160    94.8320     2.2930 O             1 RES     
   14068 Si         116.4430    53.1290    10.4140 Si            1 RES     
   14069 O          134.7450    70.4650     6.8190 O             1 RES     
   14070 O          142.7410    99.4860     7.9210 O             1 RES     
   14071 O          109.6600    75.8890     8.2980 O             1 RES     
   14072 Si         114.1900    90.4600     5.9330 Si            1 RES     
   14073 O          102.1890    57.9920     5.7940 O             1 RES     
   14074 O          116.4940    71.9160    12.0070 O             1 RES     
   14075 O          109.6740    53.0890     7.3500 O             1 RES     
   14076 Si         145.4850    52.3080     9.1260 Si            1 RES     
   14077 O          134.5530    51.7420     7.1130 O             1 RES     
   14078 Si         147.6950    96.8240     4.1620 Si            1 RES     
   14079 O          109.0940    81.8780     9.0570 O             1 RES     
   14080 O          132.8540    61.6640    10.2560 O             1 RES     
   14081 O          139.9370    62.6720     5.1830 O             1 RES     
   14082 O          142.7870    57.5880     3.9020 O             1 RES     
   14083 OS         141.5110    94.6970    13.8950 OS            1 RES     
   14084 Si         103.5110    76.4870     7.6910 Si            1 RES     
   14085 Si         145.3360    98.4560     5.2530 Si            1 RES     
   14086 O          115.0890    66.2570    10.7830 O             1 RES     
   14087 O          101.7470    75.2300     4.6450 O             1 RES     
   14088 O          120.2430    99.6870    11.9420 O             1 RES     
   14089 Si         101.9550    92.6290     6.7790 Si            1 RES     
   14090 Si         121.5380    53.5220     7.4470 Si            1 RES     
   14091 O          117.2980    95.0130    10.2930 O             1 RES     
   14092 O          114.1450    89.2150     6.8920 O             1 RES     
   14093 O          110.4990    69.3050     7.6740 O             1 RES     
   14094 Si         114.9070    57.2060     6.9330 Si            1 RES     
   14095 Si         128.6810    75.7310     9.3460 Si            1 RES     
   14096 O          135.3300    80.3750     2.9760 O             1 RES     
   14097 Si         108.6830    93.2050     7.6990 Si            1 RES     
   14098 O          114.0870    79.7210     3.3030 O             1 RES     
   14099 O          133.0820    72.8120    10.2330 O             1 RES     
   14100 O          147.5190    86.2220     3.8790 O             1 RES     
   14101 Si         128.5250    56.5820    10.1990 Si            1 RES     
   14102 OS         110.7470    86.0950    11.4710 OS            1 RES     
   14103 Si         147.4500    67.4220     4.3660 Si            1 RES     
   14104 O          128.1610    65.8470     6.3670 O             1 RES     
   14105 OS         101.1650    72.8170    14.2730 OS            1 RES     
   14106 O          144.8110    50.9100     8.5730 O             1 RES     
   14107 O          118.5750    77.3960     6.6910 O             1 RES     
   14108 O          126.1090    53.3020     3.9990 O             1 RES     
   14109 Si         142.6060    84.7230     9.4340 Si            1 RES     
   14110 Si         145.3720    60.9610     7.0310 Si            1 RES     
   14111 O          122.5860    79.5690     3.9380 O             1 RES     
   14112 O          146.9910    58.4630    12.3190 O             1 RES     
   14113 Si         140.2970    81.3540     6.4800 Si            1 RES     
   14114 Si         106.0960    83.9830    10.8440 Si            1 RES     
   14115 O          112.7440    80.9830     8.8940 O             1 RES     
   14116 OS         146.1210    51.2430    12.8700 OS            1 RES     
   14117 O          126.2930    80.5420     3.2220 O             1 RES     
   14118 O          107.8820    74.5560     9.3200 O             1 RES     
   14119 O          127.0360    72.2950     8.3600 O             1 RES     
   14120 O          125.2950    50.7040    10.3780 O             1 RES     
   14121 Si         124.9280    67.5040     7.8380 Si            1 RES     
   14122 O          148.6180    54.1440    10.7340 O             1 RES     
   14123 O          125.6520    78.5460     7.8160 O             1 RES     
   14124 O          119.8470    74.9840     6.4890 O             1 RES     
   14125 Si         141.6370    62.8030    10.9200 Si            1 RES     
   14126 Si         135.3520    51.3890    12.1150 Si            1 RES     
   14127 Si         146.8970    87.7350     7.7620 Si            1 RES     
   14128 O          126.2440    57.4510     2.2640 O             1 RES     
   14129 O          105.3780    85.8640     6.8210 O             1 RES     
   14130 O          145.1740    77.8150     2.8680 O             1 RES     
   14131 Si         143.8770    77.3760    11.5510 Si            1 RES     
   14132 Si         112.5270    58.5340     8.2720 Si            1 RES     
   14133 O          103.5620    78.0480     7.7900 O             1 RES     
   14134 O          105.2150    72.8920     2.7460 O             1 RES     
   14135 O          146.5290    72.0670     9.2400 O             1 RES     
   14136 Si         113.1480    65.3560     5.0550 Si            1 RES     
   14137 O          124.9450    79.7810    11.9010 O             1 RES     
   14138 O          100.0590    67.7840     9.3110 O             1 RES     
   14139 O          119.1170    63.8090     9.2550 O             1 RES     
   14140 O          104.0670    87.3420     4.9070 O             1 RES     
   14141 O          136.9140    60.2500     9.4460 O             1 RES     
   14142 O          135.5640    56.3480     5.5660 O             1 RES     
   14143 OS         129.1860    88.1350    12.6570 OS            1 RES     
   14144 Si         131.8730    87.3300     3.6020 Si            1 RES     
   14145 O          142.7740    53.8650     8.6890 O             1 RES     
   14146 O          149.9610    83.5230     2.2830 O             1 RES     
   14147 O          136.2550    76.7060     8.7730 O             1 RES     
   14148 Si         114.0130    65.1700    11.1740 Si            1 RES     
   14149 OS         103.7870    66.7630    12.8830 OS            1 RES     
   14150 Si         148.5450    55.0490    12.0960 Si            1 RES     
   14151 O          140.6880    72.2130     4.0540 O             1 RES     
   14152 O          114.5790    82.1970     7.4600 O             1 RES     
   14153 O          140.8770    88.5600     8.8240 O             1 RES     
   14154 O          124.8340    93.0310     2.6420 O             1 RES     
   14155 Si         130.0510    69.2360     5.0320 Si            1 RES     
   14156 O          132.2550    58.4950     2.8570 O             1 RES     
   14157 Si         106.2410    93.4290     9.5200 Si            1 RES     
   14158 Si         126.1320    77.2990     4.2450 Si            1 RES     
   14159 O          139.7030    93.2250     8.3650 O             1 RES     
   14160 O          108.5980    96.3720     2.2240 O             1 RES     
   14161 Si         134.6490    53.1510     7.7220 Si            1 RES     
   14162 O          115.1550    61.3100     5.9300 O             1 RES     
   14163 Si         105.3720    60.0700     4.4590 Si            1 RES     
   14164 O          142.3490    57.4910    12.1660 O             1 RES     
   14165 OS         115.4210    90.4660    12.0290 OS            1 RES     
   14166 O          105.0060    54.4480     4.0530 O             1 RES     
   14167 O          119.4280    95.2850     5.8050 O             1 RES     
   14168 O          144.4440    96.5930    10.0370 O             1 RES     
   14169 O          149.3310    82.3570     9.5320 O             1 RES     
   14170 O          130.1120    76.0840     8.9200 O             1 RES     
   14171 O          110.4160    51.0990     2.8170 O             1 RES     
   14172 O          105.6430    84.8800     9.6260 O             1 RES     
   14173 O          110.6130    79.6900     9.5080 O             1 RES     
   14174 O          138.9430    80.5190     6.3560 O             1 RES     
   14175 O          110.5100    58.1880     5.4640 O             1 RES     
   14176 O          118.0080    99.7870    12.4920 O             1 RES     
   14177 O          129.9750    68.5390     6.4630 O             1 RES     
   14178 Si         143.5010    56.3350    12.2980 Si            1 RES     
   14179 O          131.0460    83.8030     5.5130 O             1 RES     
   14180 O          108.9270    61.8520    11.1040 O             1 RES     
   14181 O          122.6540    50.6510     6.3860 O             1 RES     
   14182 O          145.1230    82.2190     9.7350 O             1 RES     
   14183 O          115.4250    58.6330     6.4840 O             1 RES     
   14184 O          124.3040    83.2740     3.2250 O             1 RES     
   14185 O          149.8890    63.0660     8.7600 O             1 RES     
   14186 Si         108.1590    61.0630     5.8820 Si            1 RES     
   14187 Si         109.7230    56.6800    12.0750 Si            1 RES     
   14188 Si         128.4790    58.4120     7.7260 Si            1 RES     
   14189 Si         100.5120    57.5370    12.0020 Si            1 RES     
   14190 O          109.6710    55.6550     4.5980 O             1 RES     
   14191 O          100.6430    96.6160     2.2410 O             1 RES     
   14192 O          147.4550    63.8010     8.3070 O             1 RES     
   14193 O          118.8750    75.6890    11.5620 O             1 RES     
   14194 Si         109.6420    79.2860     3.6580 Si            1 RES     
   14195 O          106.7420    77.7270     7.4510 O             1 RES     
   14196 Si         107.3690    61.2960    10.8940 Si            1 RES     
   14197 Si         130.6730    82.5360     9.5370 Si            1 RES     
   14198 O          112.3410    83.3180     7.6750 O             1 RES     
   14199 Si         105.5320    86.0130     8.4250 Si            1 RES     
   14200 Si         123.0290    93.0570    11.1760 Si            1 RES     
   14201 Si         140.9590    58.1710     7.5530 Si            1 RES     
   14202 OS         119.6480    98.2890    13.7740 OS            1 RES     
   14203 O          134.4150    72.6970     5.0520 O             1 RES     
   14204 O          121.5930    53.0260     9.0560 O             1 RES     
   14205 Si         135.2580    64.0110    11.5060 Si            1 RES     
   14206 O          115.8700    82.0780     9.6110 O             1 RES     
   14207 O          127.1660    68.1990     2.9840 O             1 RES     
   14208 O          102.9420    79.6550     4.5650 O             1 RES     
   14209 Si         141.6730    93.7280     5.2710 Si            1 RES     
   14210 O          139.1920    50.5770     7.9150 O             1 RES     
   14211 O          112.7510    69.8360     9.1320 O             1 RES     
   14212 O          121.9460    92.2760    10.3200 O             1 RES     
   14213 O          114.1980    88.2730     2.9000 O             1 RES     
   14214 O          122.6260    86.9100    13.1670 O             1 RES     
   14215 O          129.3360    82.1020     8.8840 O             1 RES     
   14216 O          149.7930    60.4860     8.6050 O             1 RES     
   14217 O          126.2920    62.6820     9.6340 O             1 RES     
   14218 O          109.8200    75.0990    10.5220 O             1 RES     
   14219 Si         127.4390    69.6000     3.5680 Si            1 RES     
   14220 O          106.6230    64.8530     6.6910 O             1 RES     
   14221 O          108.6230    99.0540    10.4420 O             1 RES     
   14222 O          144.8180    76.8060    10.4470 O             1 RES     
   14223 O          147.2400    96.8150     2.7000 O             1 RES     
   14224 O          134.5170    74.8560     9.2050 O             1 RES     
   14225 O          120.2360    59.1000    10.6340 O             1 RES     
   14226 O          132.3420    71.8730    12.6260 O             1 RES     
   14227 Si         125.7150    91.7100     2.8710 Si            1 RES     
   14228 O          134.9960    69.4610     9.2060 O             1 RES     
   14229 Si         141.4990    69.5180    11.1150 Si            1 RES     
   14230 Si         115.2730    60.2900    12.5260 Si            1 RES     
   14231 O          136.2120    68.2560     7.4380 O             1 RES     
   14232 O          129.3970    86.5730     9.2700 O             1 RES     
   14233 O          105.0300    73.2810    10.2570 O             1 RES     
   14234 Si         100.3920    92.2210     4.1890 Si            1 RES     
   14235 O          149.4230    68.8260    12.6940 O             1 RES     
   14236 O          127.1160    77.9850     5.1480 O             1 RES     
   14237 Si         108.2650    90.9430     4.4180 Si            1 RES     
   14238 O          141.1300    72.0980     6.6650 O             1 RES     
   14239 O          145.5570    81.9600     4.3400 O             1 RES     
   14240 O          100.1660    69.6860     6.1490 O             1 RES     
   14241 Si         133.2720    58.2920    11.3850 Si            1 RES     
   14242 O          122.7000    50.6170     4.0170 O             1 RES     
   14243 O          113.0960    97.7250     5.9260 O             1 RES     
   14244 Si         122.7790    51.7000     2.8520 Si            1 RES     
   14245 O          116.3630    63.3470     5.6630 O             1 RES     
   14246 O          130.9870    98.2450    10.0420 O             1 RES     
   14247 O          137.2390    99.7590     3.5030 O             1 RES     
   14248 Si         130.8900    66.7310     3.3720 Si            1 RES     
   14249 O          126.4990    94.3450     9.2110 O             1 RES     
   14250 O          149.2220    76.2600     7.9750 O             1 RES     
   14251 OS         103.4010    89.1840    11.4160 OS            1 RES     
   14252 O          133.9070    81.6450     7.3760 O             1 RES     
   14253 O          143.4510    65.8270    10.1300 O             1 RES     
   14254 Si         146.0430    75.0580     5.6030 Si            1 RES     
   14255 O          101.8810    76.1950     7.7000 O             1 RES     
   14256 O          117.3560    52.2180    11.3970 O             1 RES     
   14257 O          107.1550    67.3080     4.0380 O             1 RES     
   14258 Si         142.4350    60.2010     5.9260 Si            1 RES     
   14259 Si         140.6900    53.0210    11.3890 Si            1 RES     
   14260 O          119.3480    50.7980     2.3270 O             1 RES     
   14261 O          119.9280    79.8800    10.9250 O             1 RES     
   14262 O          119.4570    70.9430     7.8900 O             1 RES     
   14263 O          110.7040    63.2600     9.7220 O             1 RES     
   14264 Si         100.4770    51.6020     5.9420 Si            1 RES     
   14265 O          109.4100    51.3120    10.7100 O             1 RES     
   14266 Si         118.7360    67.6360     9.5480 Si            1 RES     
   14267 O          105.7520    97.8330    12.9800 O             1 RES     
   14268 O          119.8340    57.1440     8.9810 O             1 RES     
   14269 Si         118.1230    58.5540     3.6600 Si            1 RES     
   14270 Si         108.9940    83.1040    10.0430 Si            1 RES     
   14271 O          135.6350    87.2760     4.9160 O             1 RES     
   14272 O          143.9320    80.7370     6.0400 O             1 RES     
   14273 Si         110.3410    86.8300     3.1460 Si            1 RES     
   14274 O          130.0060    84.1070    13.8750 O             1 RES     
   14275 OS         133.7480    83.1240    13.3250 OS            1 RES     
   14276 Si         107.3310    93.7630     4.9050 Si            1 RES     
   14277 O          112.4480    73.4040     3.5910 O             1 RES     
   14278 Si         111.1820    70.0760     8.8680 Si            1 RES     
   14279 O          132.3270    86.7830     2.1510 O             1 RES     
   14280 Si         126.8970    82.7770    12.0530 Si            1 RES     
   14281 O          131.1770    88.7570     3.8720 O             1 RES     
   14282 O          142.7610    86.9040     6.8720 O             1 RES     
   14283 O          100.1790    95.8030    11.0080 O             1 RES     
   14284 O          114.9690    89.8680     4.7060 O             1 RES     
   14285 O          109.7750    80.5060     2.5650 O             1 RES     
   14286 Si         126.2080    85.7160    11.4330 Si            1 RES     
   14287 O          133.8200    51.8110    12.2470 O             1 RES     
   14288 O          132.2410    74.6310     8.4590 O             1 RES     
   14289 O          144.9250    56.9980    12.2900 O             1 RES     
   14290 Si         110.0470    56.9750     9.0140 Si            1 RES     
   14291 O          104.9290    63.9990     8.3470 O             1 RES     
   14292 Si         123.0970    84.0080     6.9800 Si            1 RES     
   14293 O          135.3680    99.2480     6.6070 O             1 RES     
   14294 O          138.6330    53.1870     8.2330 O             1 RES     
   14295 O          109.6790    88.1050     2.4130 O             1 RES     
   14296 O          124.3640    75.9410     9.8980 O             1 RES     
   14297 Si         101.3860    54.4330     6.3760 Si            1 RES     
   14298 O          136.0720    75.4030    10.9870 O             1 RES     
   14299 Si         133.3970    50.4560     4.1020 Si            1 RES     
   14300 O          147.7770    95.4010     4.5940 O             1 RES     
   14301 O          149.6460    50.9140     7.0600 O             1 RES     
   14302 Si         149.7490    92.7510     8.8430 Si            1 RES     
   14303 O          121.0710    55.0660     7.7670 O             1 RES     
   14304 Si         117.6200    58.2770    12.5210 Si            1 RES     
   14305 O          123.8990    58.0890     8.4830 O             1 RES     
   14306 O          144.9940    56.8110     5.0230 O             1 RES     
   14307 O          138.3840    77.7090     9.6910 O             1 RES     
   14308 Si         102.3000    99.5910     9.1770 Si            1 RES     
   14309 O          111.0760    67.9080    12.0650 O             1 RES     
   14310 Si         102.4870    95.5200     5.7490 Si            1 RES     
   14311 O          105.1070    63.1130     2.0220 O             1 RES     
   14312 O          117.3130    67.3870    10.0950 O             1 RES     
   14313 O          138.8030    68.8680     3.1010 O             1 RES     
   14314 O          106.2230    55.3790     1.6200 O             1 RES     
   14315 O          133.8930    87.3990    11.2720 O             1 RES     
   14316 OS         135.5880    87.9490    13.8270 OS            1 RES     
   14317 O          105.7350    72.1460    12.4840 O             1 RES     
   14318 O          149.2590    81.1290     2.4940 O             1 RES     
   14319 Si         130.0550    70.4620     9.8690 Si            1 RES     
   14320 O          106.6910    71.9270     4.9560 O             1 RES     
   14321 O          117.7340    71.6430     3.5230 O             1 RES     
   14322 O          119.7000    95.8050    10.1940 O             1 RES     
   14323 O          121.0350    60.2870     8.9720 O             1 RES     
   14324 Si         100.3040    61.6260     9.5100 Si            1 RES     
   14325 Si         147.8920    89.8850     5.9730 Si            1 RES     
   14326 Si         125.8660    94.0270    10.5700 Si            1 RES     
   14327 O          103.1940    50.0020     7.9500 O             1 RES     
   14328 O          133.6470    84.4260     4.8550 O             1 RES     
   14329 Si         130.7270    92.4020     8.4770 Si            1 RES     
   14330 Si         134.7700    87.8690     3.8180 Si            1 RES     
   14331 O          129.2810    70.1280    11.1720 O             1 RES     
   14332 O          115.4150    57.7660     1.5950 O             1 RES     
   14333 O          118.3850    85.8390     4.7270 O             1 RES     
   14334 Si         145.2900    75.8680     9.3100 Si            1 RES     
   14335 Si         142.5050    72.3130    10.4510 Si            1 RES     
   14336 Si         115.7320    79.5360     3.7050 Si            1 RES     
   14337 Si         109.6690    97.8430     5.4930 Si            1 RES     
   14338 O          112.3740    98.9220     8.1810 O             1 RES     
   14339 O          124.6360    50.9360     7.9300 O             1 RES     
   14340 O          119.8080    53.0050     3.2320 O             1 RES     
   14341 O          135.4430    50.0010    12.9260 O             1 RES     
   14342 O          106.8130    77.9240     9.9120 O             1 RES     
   14343 O          136.6000    88.8690     6.7020 O             1 RES     
   14344 Si         110.1060    69.0830    11.7060 Si            1 RES     
   14345 O          119.5560    65.3870     7.1320 O             1 RES     
   14346 O          113.4780    97.4240     3.3610 O             1 RES     
   14347 OS         133.1620    61.7520    13.1050 OS            1 RES     
   14348 O          110.6930    76.6800     1.2410 O             1 RES     
   14349 O          122.8730    72.8310    11.1670 O             1 RES     
   14350 O          111.8470    71.1590     4.2940 O             1 RES     
   14351 Si         121.9760    62.3940    12.3550 Si            1 RES     
   14352 O          112.8560    59.6200     9.3420 O             1 RES     
   14353 Si         115.5080    88.7700     3.6850 Si            1 RES     
   14354 O          137.2780    92.6790     9.7680 O             1 RES     
   14355 O          108.5470    60.3990     4.4330 O             1 RES     
   14356 O          104.3780    96.6300     8.9120 O             1 RES     
   14357 O          129.9050    95.6210     6.1860 O             1 RES     
   14358 Si         133.6080    64.0500     6.7690 Si            1 RES     
   14359 O          106.9040    64.7780     2.4800 O             1 RES     
   14360 O          117.7290    96.9900     5.8550 O             1 RES     
   14361 O          113.0630    52.0570     5.8520 O             1 RES     
   14362 O          114.9550    70.6690     8.2220 O             1 RES     
   14363 O          126.1070    91.4050     4.3750 O             1 RES     
   14364 O          126.7350    76.8440     2.9100 O             1 RES     
   14365 O          130.0560    52.9350     5.7890 O             1 RES     
   14366 O          145.2980    71.2120     4.8160 O             1 RES     
   14367 O          109.9770    60.8910     9.1250 O             1 RES     
   14368 Si         115.7720    82.3240    11.1840 Si            1 RES     
   14369 O          125.9570    82.4380     4.9530 O             1 RES     
   14370 O          149.6260    88.0500     4.0950 O             1 RES     
   14371 Si         127.7560    72.5190     3.0090 Si            1 RES     
   14372 O          106.1310    68.0340    12.6980 O             1 RES     
   14373 Si         129.6580    62.5070     4.9570 Si            1 RES     
   14374 Si         120.6900    53.4160     4.4270 Si            1 RES     
   14375 O          118.0140    87.6140     6.4480 O             1 RES     
   14376 Si         107.4400    99.6480     6.7860 Si            1 RES     
   14377 O          111.4600    92.1930     3.2080 O             1 RES     
   14378 O          107.4840    92.2850     4.2520 O             1 RES     
   14379 O          120.4090    91.3470     8.5420 O             1 RES     
   14380 O          127.7690    65.8050     3.7780 O             1 RES     
   14381 O          120.8050    72.5490     6.6200 O             1 RES     
   14382 O          147.1940    59.1690     3.9050 O             1 RES     
   14383 OS         143.1990    82.2580    11.8910 OS            1 RES     
   14384 OS         102.5250    51.7930    12.7490 OS            1 RES     
   14385 O          115.8720    81.1240     3.5680 O             1 RES     
   14386 OS         136.9670    73.0980    12.0190 OS            1 RES     
   14387 O          124.6860    55.7720     8.6550 O             1 RES     
   14388 Si         103.3320    67.0320     2.8190 Si            1 RES     
   14389 O          146.1960    69.5610     9.2260 O             1 RES     
   14390 O          104.2990    61.6510     9.3740 O             1 RES     
   14391 Si         143.9040    70.4480     4.8120 Si            1 RES     
   14392 O          124.8680    85.8760    12.2940 O             1 RES     
   14393 O          123.6580    68.9010     3.6840 O             1 RES     
   14394 Si         114.1220    87.2970    12.4430 Si            1 RES     
   14395 Si         148.3240    53.2150     9.4960 Si            1 RES     
   14396 O          108.7600    95.0380    12.2370 O             1 RES     
   14397 Si         135.3480    84.2110     9.5120 Si            1 RES     
   14398 Si         147.0210    50.0510    12.4420 Si            1 RES     
   14399 O          119.9310    83.8980     5.2210 O             1 RES     
   14400 O          107.6010    84.5360     2.5650 O             1 RES     
   14401 O          115.1770    94.2300     2.7320 O             1 RES     
   14402 O          141.9330    87.9030     4.7360 O             1 RES     
   14403 Si         106.2890    67.4690     9.5750 Si            1 RES     
   14404 O          125.4360    61.1810    11.7760 O             1 RES     
   14405 O          110.2860    51.4390     5.2360 O             1 RES     
   14406 O          123.4720    93.8750     7.4750 O             1 RES     
   14407 O          106.0160    94.9060     9.1190 O             1 RES     
   14408 Si         112.5860    59.9290     3.0050 Si            1 RES     
   14409 O          102.3750    65.4810     5.2860 O             1 RES     
   14410 O          127.3190    79.2610    12.4900 O             1 RES     
   14411 Si         105.0570    63.0090     9.6470 Si            1 RES     
   14412 O          118.5420    55.3050     7.9260 O             1 RES     
   14413 O          148.6410    93.7890     8.4790 O             1 RES     
   14414 O          111.8310    80.9040    11.1600 O             1 RES     
   14415 O          135.0670    63.4710     6.3520 O             1 RES     
   14416 Si         142.0050    88.9920     3.5840 Si            1 RES     
   14417 O          108.0640    90.0100     3.0870 O             1 RES     
   14418 Si         128.7100    87.9400     8.8920 Si            1 RES     
   14419 Si         101.4570    57.3840     7.0950 Si            1 RES     
   14420 O          119.5950    81.6930     6.4870 O             1 RES     
   14421 Si         120.2910    60.6330    10.3250 Si            1 RES     
   14422 O          149.4830    59.5720     4.3120 O             1 RES     
   14423 Si         149.2360    80.9390    10.2300 Si            1 RES     
   14424 O          129.8460    91.2250     8.0550 O             1 RES     
   14425 Si         119.0220    75.9820     7.4110 Si            1 RES     
   14426 O          123.4690    63.3370     9.5400 O             1 RES     
   14427 Si         123.9240    74.9980     8.7160 Si            1 RES     
   14428 OS         133.2710    87.9530    13.2690 OS            1 RES     
   14429 OS         122.4530    71.1830    13.0020 OS            1 RES     
   14430 O          125.8540    75.8150     5.0220 O             1 RES     
   14431 O          140.4720    81.4740     8.0220 O             1 RES     
   14432 Si         149.0790    59.2880     7.9830 Si            1 RES     
   14433 OS         106.2560    56.2770    13.5190 OS            1 RES     
   14434 Si         134.2060    90.7980     4.4520 Si            1 RES     
   14435 O          138.6100    87.7160     3.1690 O             1 RES     
   14436 Si         107.0770    70.2490     8.8390 Si            1 RES     
   14437 Si         148.9090    96.5840    11.4290 Si            1 RES     
   14438 O          138.3370    76.5730     2.7100 O             1 RES     
   14439 Si         134.5520    59.9310     7.0270 Si            1 RES     
   14440 Si         120.0360    81.2220    10.1190 Si            1 RES     
   14441 O          102.8930    72.2920     2.5400 O             1 RES     
   14442 Si         127.6670    66.0710     7.8400 Si            1 RES     
   14443 O          128.8060    63.8260     5.0430 O             1 RES     
   14444 Si         124.8180    62.7050    10.9700 Si            1 RES     
   14445 Si         148.9160    83.1910     8.2340 Si            1 RES     
   14446 Si         119.3220    88.0950    12.5930 Si            1 RES     
   14447 Si         101.9380    85.8990    11.6940 Si            1 RES     
   14448 OS         149.5410    97.6210    12.5080 OS            1 RES     
   14449 O          145.7460    87.2740    11.2740 O             1 RES     
   14450 OS         141.7790    80.2140    12.0810 OS            1 RES     
   14451 OS         109.6630    80.5690    12.2770 OS            1 RES     
   14452 Si         119.9030    64.9890     8.5670 Si            1 RES     
   14453 O          125.7710    54.4830     6.4720 O             1 RES     
   14454 O          145.7780    72.3830    11.6510 O             1 RES     
   14455 O          148.9850    82.2290     4.6010 O             1 RES     
   14456 Si         137.7750    89.8480     6.4840 Si            1 RES     
   14457 O          108.1810    51.0180     6.6000 O             1 RES     
   14458 O          107.9860    59.8280     2.0970 O             1 RES     
   14459 Si         129.5330    83.3360     5.4390 Si            1 RES     
   14460 O          146.2350    73.4670     5.7550 O             1 RES     
   14461 Si         117.2150    78.3100     6.4770 Si            1 RES     
   14462 O          123.2530    57.7300     5.9480 O             1 RES     
   14463 O          120.2230    91.7250     6.0320 O             1 RES     
   14464 Si         114.1060    52.9270    12.3560 Si            1 RES     
   14465 O          119.4250    76.0820     8.9530 O             1 RES     
   14466 Si         107.2080    98.9900     9.7760 Si            1 RES     
   14467 OS         113.0180    87.7460    13.3970 OS            1 RES     
   14468 Si         149.0280    66.6680     9.7360 Si            1 RES     
   14469 O          138.7140    89.7180     7.7470 O             1 RES     
   14470 Si         130.7840    96.8420     5.9520 Si            1 RES     
   14471 O          110.4830    79.8580     4.8470 O             1 RES     
   14472 O          143.3200    91.9460     1.6670 O             1 RES     
   14473 Si         118.2410    62.9120    10.1490 Si            1 RES     
   14474 O          110.7840    93.1810    10.3760 O             1 RES     
   14475 O          142.2450    92.8690     9.2390 O             1 RES     
   14476 Si         128.5000    72.7930     8.3570 Si            1 RES     
   14477 O          104.2370    71.0310    10.8790 O             1 RES     
   14478 O          131.8450    58.4730    11.9550 O             1 RES     
   14479 O          144.0220    72.2570     9.9290 O             1 RES     
   14480 Si         139.1410    99.3650     6.8780 Si            1 RES     
   14481 OS         110.8590    65.6080    13.4570 OS            1 RES     
   14482 Si         105.3790    50.2450     4.5480 Si            1 RES     
   14483 O          108.0870    60.3600     7.2540 O             1 RES     
   14484 O          129.9120    93.3700     9.5960 O             1 RES     
   14485 Si         143.3470    67.3420     9.7490 Si            1 RES     
   14486 O          121.2180    88.5560     4.1250 O             1 RES     
   14487 Si         146.2780    68.2610    10.0530 Si            1 RES     
   14488 O          119.3690    89.5920     7.2420 O             1 RES     
   14489 O          147.3990    63.5140     4.6950 O             1 RES     
   14490 Si         129.8150    83.5000    12.2720 Si            1 RES     
   14491 O          129.7090    54.6080     3.9520 O             1 RES     
   14492 O          124.4790    56.5760     3.9720 O             1 RES     
   14493 Si         145.4830    50.4720     2.9760 Si            1 RES     
   14494 O          142.9600    71.7040     4.9030 O             1 RES     
   14495 O          111.2310    69.0010     2.7990 O             1 RES     
   14496 Si         130.8700    58.1510     3.5780 Si            1 RES     
   14497 Si         110.7240    94.5390     9.5680 Si            1 RES     
   14498 O          144.5910    53.2770    10.0920 O             1 RES     
   14499 OS         140.6880    62.9890    12.1640 OS            1 RES     
   14500 O          123.7620    84.0750     5.5450 O             1 RES     
   14501 O          128.5770    69.4320     4.6810 O             1 RES     
   14502 Si         148.8450    82.4750     3.0400 Si            1 RES     
   14503 O          102.2640    78.7650    11.3580 O             1 RES     
   14504 O          108.7090    68.4050    12.0580 O             1 RES     
   14505 Si         136.6600    79.8290     3.7120 Si            1 RES     
   14506 O          124.6190    71.3980     7.7070 O             1 RES     
   14507 Si         139.7760    77.3710    10.4760 Si            1 RES     
   14508 OS         148.4250    80.9370    11.5870 OS            1 RES     
   14509 O          136.1050    53.2680     8.2910 O             1 RES     
   14510 O          112.4430    51.3040     8.2790 O             1 RES     
   14511 Si         133.4360    66.4340    10.8380 Si            1 RES     
   14512 Si         130.7530    54.1730     5.0870 Si            1 RES     
   14513 O          106.1070    88.0600     5.8620 O             1 RES     
   14514 O          138.6680    86.4770     8.9480 O             1 RES     
   14515 Si         111.1630    59.6020     5.7720 Si            1 RES     
   14516 Si         140.3730    64.4940     8.7190 Si            1 RES     
   14517 O          149.6810    82.3530     7.0340 O             1 RES     
   14518 OS         114.2170    72.5440    13.1760 OS            1 RES     
   14519 O          133.6960    65.5260     7.1440 O             1 RES     
   14520 O          134.6540    99.6130     3.8450 O             1 RES     
   14521 O          100.6790    80.3410     5.3820 O             1 RES     
   14522 Si         119.0850    98.6460    12.2470 Si            1 RES     
   14523 Si         122.1510    52.9900    10.5480 Si            1 RES     
   14524 O          134.7300    86.8210     2.4400 O             1 RES     
   14525 O          102.4910    68.3390     2.9200 O             1 RES     
   14526 Si         146.3210    91.5570     3.9180 Si            1 RES     
   14527 O          135.5150    62.7300     1.6720 O             1 RES     
   14528 O          120.6750    85.7400     9.5880 O             1 RES     
   14529 O          144.1660    76.3470     8.2340 O             1 RES     
   14530 Si         100.5010    75.4290     7.9210 Si            1 RES     
   14531 O          125.2210    89.4880     5.9300 O             1 RES     
   14532 OS         146.3090    85.2350    12.6710 OS            1 RES     
   14533 O          119.1550    57.3510     3.9290 O             1 RES     
   14534 O          124.3180    75.4750     7.2570 O             1 RES     
   14535 O          144.5330    92.4470    10.6150 O             1 RES     
   14536 O          132.8890    87.2560     8.9580 O             1 RES     
   14537 OS         101.4300    57.6250    13.2710 OS            1 RES     
   14538 Si         110.0770    68.5520     6.3800 Si            1 RES     
   14539 Si         115.4110    62.2030     8.9330 Si            1 RES     
   14540 Si         123.5250    72.0570    12.3530 Si            1 RES     
   14541 O          132.6580    79.0700    10.7970 O             1 RES     
   14542 O          118.9780    61.5120    10.0640 O             1 RES     
   14543 OS         125.6930    69.3670    13.4870 OS            1 RES     
   14544 O          142.1530    59.8200     4.4030 O             1 RES     
   14545 OS         131.5440    67.1520    13.7880 OS            1 RES     
   14546 O          118.3820    57.7760    11.1990 O             1 RES     
   14547 Si         119.9120    75.9010    10.4390 Si            1 RES     
   14548 Si         121.2670    89.6860     3.0300 Si            1 RES     
   14549 O          110.3610    94.5950     2.8460 O             1 RES     
   14550 O          119.7400    95.9700     3.4200 O             1 RES     
   14551 Si         118.8430    60.6020     5.8770 Si            1 RES     
   14552 O          111.3070    74.0840     8.6510 O             1 RES     
   14553 O          121.1670    51.4560    13.9310 O             1 RES     
   14554 O          108.0970    79.2030     4.1690 O             1 RES     
   14555 O          133.8360    60.8010     2.9710 O             1 RES     
   14556 O          101.1100    70.6060     3.1090 O             1 RES     
   14557 Si         146.7980    70.7630     8.3390 Si            1 RES     
   14558 O          112.9400    88.4750     8.8170 O             1 RES     
   14559 Si         129.6600    94.8580    10.0510 Si            1 RES     
   14560 O          111.2120    65.4640     8.3510 O             1 RES     
   14561 Si         139.6190    52.0610     8.6460 Si            1 RES     
   14562 OS         119.3910    89.6610    12.7410 OS            1 RES     
   14563 O          147.5620    57.4470     5.5700 O             1 RES     
   14564 Si         139.2700    86.7440    10.3940 Si            1 RES     
   14565 O          143.0340    68.0030     8.3440 O             1 RES     
   14566 Si         131.7660    56.8110     9.2550 Si            1 RES     
   14567 O          102.4310    70.7180     6.6690 O             1 RES     
   14568 Si         141.7730    94.6900    12.3280 Si            1 RES     
   14569 O          128.3720    83.8490     7.0030 O             1 RES     
   14570 OS         112.9090    77.3060    12.5350 OS            1 RES     
   14571 Si         104.1990    55.0560    10.8450 Si            1 RES     
   14572 O          139.9540    55.4880     5.1340 O             1 RES     
   14573 Si         102.1290    64.5270     4.0690 Si            1 RES     
   14574 Si         123.8080    58.7590     7.0580 Si            1 RES     
   14575 O          115.0930    50.7780     4.4410 O             1 RES     
   14576 O          134.8950    54.1750     6.5650 O             1 RES     
   14577 OS         134.3920    79.4680    12.5620 OS            1 RES     
   14578 O          103.3300    72.7720     8.3380 O             1 RES     
   14579 O          118.1330    59.5050     2.4330 O             1 RES     
   14580 O          112.2920    94.5360     9.1110 O             1 RES     
   14581 O          106.9350    70.8710     7.3810 O             1 RES     
   14582 Si         108.2440    87.4110     8.3920 Si            1 RES     
   14583 OS         125.8330    65.4440    13.8280 OS            1 RES     
   14584 Si         113.5490    84.3190    11.9030 Si            1 RES     
   14585 Si         119.7110    57.5830    10.4450 Si            1 RES     
   14586 Si         128.6080    65.3720     4.9640 Si            1 RES     
   14587 O          139.9930    54.1720     3.0720 O             1 RES     
   14588 Si         125.0340    82.0940     8.5620 Si            1 RES     
   14589 O          143.6290    83.2150     5.0040 O             1 RES     
   14590 Si         111.3430    91.5240     4.6710 Si            1 RES     
   14591 Si         127.0130    63.1390     8.3330 Si            1 RES     
   14592 Si         148.9600    63.6160     4.9470 Si            1 RES     
   14593 O          126.9220    79.1920     9.9540 O             1 RES     
   14594 Si         106.3490    76.5680     6.4490 Si            1 RES     
   14595 O          126.2180    53.1580    10.9840 O             1 RES     
   14596 O          133.2120    66.3800     9.3320 O             1 RES     
   14597 OS         106.4260    84.7250    12.1420 OS            1 RES     
   14598 O          119.1830    98.4110     2.8480 O             1 RES     
   14599 Si         102.8540    96.5740     8.6460 Si            1 RES     
   14600 O          140.5630    85.5950     5.7950 O             1 RES     
   14601 O          133.2630    60.6490     7.6910 O             1 RES     
   14602 O          144.8170    99.4930     6.4370 O             1 RES     
   14603 O          115.8050    50.2400    11.7960 O             1 RES     
   14604 Si         129.1690    90.2680     6.9740 Si            1 RES     
   14605 O          124.2300    82.0940     9.9360 O             1 RES     
   14606 OS         136.0060    64.0500    12.9430 OS            1 RES     
   14607 Si         104.1400    81.8930    12.2360 Si            1 RES     
   14608 O          113.9600    85.7890    11.8600 O             1 RES     
   14609 O          110.1560    67.0980     6.7790 O             1 RES     
   14610 O          131.4100    88.4720    11.0010 O             1 RES     
   14611 O          116.3110    59.1870    12.1930 O             1 RES     
   14612 O          149.7160    56.1130    11.9960 O             1 RES     
   14613 Si         146.2190    56.7850     6.0930 Si            1 RES     
   14614 OS         149.4500    58.6740    12.1600 OS            1 RES     
   14615 O          100.5590    74.8310     9.4250 O             1 RES     
   14616 O          131.0190    62.8100     4.2520 O             1 RES     
   14617 O          142.5120    63.8110     3.3200 O             1 RES     
   14618 O          144.9820    85.0040     3.9540 O             1 RES     
   14619 Si         147.8900    90.3320     9.3920 Si            1 RES     
   14620 OS         140.7650    69.2600    12.4870 OS            1 RES     
   14621 O          149.3310    84.6780     8.0710 O             1 RES     
   14622 O          106.5610    59.2230     3.8240 O             1 RES     
   14623 O          134.6850    62.5290    11.3780 O             1 RES     
   14624 Si         124.1050    89.4900    10.4800 Si            1 RES     
   14625 O          133.2570    50.2650     5.6660 O             1 RES     
   14626 O          122.7900    59.8900     7.1890 O             1 RES     
   14627 O          132.6950    85.6060     6.7950 O             1 RES     
   14628 OS         105.9340    78.2390    12.2320 OS            1 RES     
   14629 O          129.9530    65.9870     4.5410 O             1 RES     
   14630 Si         145.8740    63.8780     8.0790 Si            1 RES     
   14631 O          134.1640    67.8210    10.9570 O             1 RES     
   14632 Si         149.1160    70.2060    11.9690 Si            1 RES     
   14633 O          115.7400    60.8380     8.1330 O             1 RES     
   14634 Si         105.7440    96.3750     9.5310 Si            1 RES     
   14635 O          138.2740    74.3050    10.1730 O             1 RES     
   14636 O          143.1520    51.7600     6.8610 O             1 RES     
   14637 O          124.4440    66.8930     9.2070 O             1 RES     
   14638 Si         147.1230    94.1060     8.0430 Si            1 RES     
   14639 Si         132.3110    63.8020     4.0170 Si            1 RES     
   14640 O          127.0840    50.2090     8.7460 O             1 RES     
   14641 Si         142.5260    74.7440    12.2770 Si            1 RES     
   14642 O          148.5480    59.5350     6.5140 O             1 RES     
   14643 O          132.0830    55.2400     9.5810 O             1 RES     
   14644 Si         130.7770    56.9750     6.3810 Si            1 RES     
   14645 O          132.6560    67.3460     3.5770 O             1 RES     
   14646 Si         122.9830    96.9500     5.2330 Si            1 RES     
   14647 Si         110.7820    72.8880     7.5800 Si            1 RES     
   14648 O          137.9150    85.4680     2.4360 O             1 RES     
   14649 Si         128.5620    60.2560     3.2980 Si            1 RES     
   14650 O          139.5970    58.4610     6.8880 O             1 RES     
   14651 OS         128.0860    77.0470    12.8440 OS            1 RES     
   14652 Si         112.4540    50.0520     9.2110 Si            1 RES     
   14653 O          146.1330    68.2330    11.5320 O             1 RES     
   14654 O          125.1730    59.3400     6.4250 O             1 RES     
   14655 O          133.3330    94.0330    10.0310 O             1 RES     
   14656 O          141.8390    74.0760     5.2260 O             1 RES     
   14657 Si         137.3600    67.2670     7.9960 Si            1 RES     
   14658 Si         128.2610    78.7300     5.8670 Si            1 RES     
   14659 Si         130.2820    58.1480    12.0040 Si            1 RES     
   14660 O          103.8730    52.3210     7.7110 O             1 RES     
   14661 OS         109.8770    99.4910    12.5530 OS            1 RES     
   14662 O          114.0220    60.2330    11.5570 O             1 RES     
   14663 Si         122.5800    63.5060     8.3100 Si            1 RES     
   14664 O          149.1180    51.8730     9.3660 O             1 RES     
   14665 Si         148.9490    64.0960     8.0240 Si            1 RES     
   14666 Si         146.8790    53.8960     6.8860 Si            1 RES     
   14667 O          135.4650    82.8620     6.0240 O             1 RES     
   14668 O          127.1510    87.9040     8.7450 O             1 RES     
   14669 Si         117.7620    73.1290     3.9820 Si            1 RES     
   14670 O          126.4320    67.0710     7.9550 O             1 RES     
   14671 O          123.7870    78.9780    13.9750 O             1 RES     
   14672 O          114.9030    72.0870     6.1110 O             1 RES     
   14673 O          116.5420    93.3890     8.1150 O             1 RES     
   14674 O          100.9190    72.9880     4.2150 O             1 RES     
   14675 Si         117.7200    63.2740     4.9340 Si            1 RES     
   14676 O          105.1420    92.4580     8.9610 O             1 RES     
   14677 O          134.5830    58.8080     5.8920 O             1 RES     
   14678 O          100.6930    72.6550     1.5560 O             1 RES     
   14679 O          127.9120    94.4110     6.9660 O             1 RES     
   14680 Si         148.7060    62.1020    12.1750 Si            1 RES     
   14681 O          140.0080    54.3710    11.6840 O             1 RES     
   14682 O          118.3840    64.6960     5.1130 O             1 RES     
   14683 O          105.2630    96.3220    11.0400 O             1 RES     
   14684 O          147.8390    71.1070     5.3680 O             1 RES     
   14685 Si         126.3970    65.0080    12.4620 Si            1 RES     
   14686 O          142.3170    76.3140     6.2530 O             1 RES     
   14687 O          125.3350    57.2390    10.7060 O             1 RES     
   14688 Si         131.4810    76.0880     8.1040 Si            1 RES     
   14689 O          149.2420    86.2610     5.9950 O             1 RES     
   14690 O          146.9280    52.4810     9.7930 O             1 RES     
   14691 O          136.5390    80.8970     7.4160 O             1 RES     
   14692 O          132.5680    71.7720     6.0700 O             1 RES     
   14693 O          101.2920    69.6120     8.2810 O             1 RES     
   14694 O          124.1240    62.2340     5.0580 O             1 RES     
   14695 Si         103.8400    53.8590     8.0030 Si            1 RES     
   14696 Si         102.7330    57.5870     9.8720 Si            1 RES     
   14697 O          107.5060    75.9090    11.4880 O             1 RES     
   14698 Si         108.4160    74.7610     7.8710 Si            1 RES     
   14699 OS         101.2370    66.9980    13.2580 OS            1 RES     
   14700 O          114.4070    52.7210     7.7180 O             1 RES     
   14701 O          125.0570    90.4720    11.2770 O             1 RES     
   14702 O          121.3450    81.9200     4.4470 O             1 RES     
   14703 Si         111.9350    89.3810     9.6200 Si            1 RES     
   14704 Si         112.9040    52.3990     7.3500 Si            1 RES     
   14705 O          134.6530    54.1580     4.0910 O             1 RES     
   14706 Si         120.6580    82.5660     5.7020 Si            1 RES     
   14707 O          109.9550    56.7670    10.5320 O             1 RES     
   14708 O          106.3270    99.7210     5.6860 O             1 RES     
   14709 O          128.0230    73.1170     4.3880 O             1 RES     
   14710 Si         113.5940    51.3770     4.4050 Si            1 RES     
   14711 O          126.0460    62.7870     7.0520 O             1 RES     
   14712 Si         108.1330    89.0510    11.0320 Si            1 RES     
   14713 O          129.3400    50.0210     9.9030 O             1 RES     
   14714 OS         120.6290    69.5290    12.8240 OS            1 RES     
   14715 O          146.3110    66.6070     5.0460 O             1 RES     
   14716 O          135.1690    59.0720     8.2150 O             1 RES     
   14717 O          122.7640    86.2150    10.5800 O             1 RES     
   14718 O          121.7240    54.2780    11.3080 O             1 RES     
   14719 O          130.1630    69.2540     8.8420 O             1 RES     
   14720 Si         115.8320    67.6140    10.7090 Si            1 RES     
   14721 O          149.4760    89.6740     5.8810 O             1 RES     
   14722 O          117.5210    63.0590     3.3260 O             1 RES     
   14723 Si         113.2090    93.8680     5.5150 Si            1 RES     
   14724 O          136.7560    78.3420     3.2740 O             1 RES     
   14725 O          100.1930    58.2110     7.5440 O             1 RES     
   14726 O          140.9160    58.9220     9.0310 O             1 RES     
   14727 Si         135.5870    98.5000    12.5270 Si            1 RES     
   14728 OS         132.5230    80.9610    12.8910 OS            1 RES     
   14729 Si         126.3850    80.8540     4.7940 Si            1 RES     
   14730 Si         121.2500    50.8260    12.5180 Si            1 RES     
   14731 O          127.9370    78.7950     7.4510 O             1 RES     
   14732 Si         132.3110    51.7010    11.9900 Si            1 RES     
   14733 O          120.8080    53.1280     6.0350 O             1 RES     
   14734 O          140.3960    69.4270    10.0400 O             1 RES     
   14735 O          108.1620    94.6540     3.9810 O             1 RES     
   14736 O          131.2400    97.1840     7.4300 O             1 RES     
   14737 O          123.7120    52.8520    10.9510 O             1 RES     
   14738 Si         121.9530    99.8670     5.1650 Si            1 RES     
   14739 O          128.4080    82.9060    12.4150 O             1 RES     
   14740 Si         102.6000    89.6720    10.1250 Si            1 RES     
   14741 Si         114.2540    70.1500     9.5970 Si            1 RES     
   14742 Si         133.7110    61.3420    11.5940 Si            1 RES     
   14743 O          102.3200    86.0940    10.2110 O             1 RES     
   14744 Si         133.6340    86.2480     7.9020 Si            1 RES     
   14745 OS         110.7800    55.6640    12.5930 OS            1 RES     
   14746 O          124.1490    93.2310    10.0890 O             1 RES     
   14747 O          143.1390    78.5830    10.8060 O             1 RES     
   14748 O          147.2410    55.9820    11.9870 O             1 RES     
   14749 Si         113.1380    60.7930    10.3950 Si            1 RES     
   14750 O          117.1380    83.0670    11.5390 O             1 RES     
   14751 Si         126.4910    79.8150    11.3490 Si            1 RES     
   14752 O          118.5480    62.0030     5.4170 O             1 RES     
   14753 O          131.5450    85.9710     4.5650 O             1 RES     
   14754 Si         100.7740    97.0520     3.7350 Si            1 RES     
   14755 O          102.5520    57.5940     3.3250 O             1 RES     
   14756 Si         145.9920    82.1560     8.3110 Si            1 RES     
   14757 O          144.3380    96.0900     7.4270 O             1 RES     
   14758 Si         143.0130    79.5670     5.5960 Si            1 RES     
   14759 Si         143.2570    54.0900    10.1390 Si            1 RES     
   14760 Si         127.4220    53.6870    10.1520 Si            1 RES     
   14761 O          120.0630    89.6790     1.9350 O             1 RES     
   14762 O          117.8060    50.4220     4.2120 O             1 RES     
   14763 O          138.2740    56.0910    11.2360 O             1 RES     
   14764 O          104.5930    89.7580     5.1360 O             1 RES     
   14765 Si         128.9100    51.9180     6.1170 Si            1 RES     
   14766 O          111.7560    56.7500     4.0410 O             1 RES     
   14767 Si         124.7800    87.9610     5.9250 Si            1 RES     
   14768 O          109.0370    58.2650     8.6630 O             1 RES     
   14769 O          124.0770    62.4170     2.5300 O             1 RES     
   14770 O          137.7560    82.9340     2.4400 O             1 RES     
   14771 OS         104.5950    99.1400    14.5170 OS            1 RES     
   14772 O          124.6140    71.0140    11.8510 O             1 RES     
   14773 O          122.9150    75.2500     2.6540 O             1 RES     
   14774 O          110.7970    97.4620     6.5500 O             1 RES     
   14775 Si         121.8370    91.1810     9.1520 Si            1 RES     
   14776 O          109.1480    57.9230     3.5290 O             1 RES     
   14777 Si         140.5370    59.9940    10.0790 Si            1 RES     
   14778 O          105.7350    55.3190    11.2190 O             1 RES     
   14779 O          101.9570    88.9090     4.9630 O             1 RES     
   14780 O          139.2870    90.1540    10.0700 O             1 RES     
   14781 O          103.8470    67.0590     4.3490 O             1 RES     
   14782 O          117.8950    91.6230     7.1700 O             1 RES     
   14783 Si         141.1600    82.1080     9.2800 Si            1 RES     
   14784 Si         107.5300    68.7090     4.5500 Si            1 RES     
   14785 O          139.2430    60.7900     9.7430 O             1 RES     
   14786 O          138.8950    64.7690     9.3090 O             1 RES     
   14787 Si         132.5590    87.3940    10.4550 Si            1 RES     
   14788 O          136.1270    96.5280     6.8370 O             1 RES     
   14789 O          135.6710    57.5290     3.6010 O             1 RES     
   14790 Si         141.2410    55.5420     6.0670 Si            1 RES     
   14791 O          144.3530    97.2570     5.2990 O             1 RES     
   14792 O          121.0960    61.5510    11.3260 O             1 RES     
   14793 O          136.3140    97.7270     2.8030 O             1 RES     
   14794 Si         103.2690    57.8770     4.6890 Si            1 RES     
   14795 Si         144.3260    82.8360    10.9620 Si            1 RES     
   14796 O          105.9080    94.4830     4.7470 O             1 RES     
   14797 O          137.8670    98.5510     6.9750 O             1 RES     
   14798 Si         147.7890    79.7170     7.8140 Si            1 RES     
   14799 O          110.5360    95.8010    10.8160 O             1 RES     
   14800 O          130.0420    56.9110     3.1560 O             1 RES     
   14801 O          129.3280    75.3040     5.3200 O             1 RES     
   14802 O          102.6590    54.1220     4.7300 O             1 RES     
   14803 O          103.6920    89.0040     2.9030 O             1 RES     
   14804 O          146.0630    57.6860    10.0550 O             1 RES     
   14805 Si         142.8980    89.7550    11.7930 Si            1 RES     
   14806 Si         144.6300    82.1160     5.5620 Si            1 RES     
   14807 Si         106.6730    78.6420     4.1830 Si            1 RES     
   14808 O          135.2920    62.1580     4.2350 O             1 RES     
   14809 O          123.1660    65.8090     4.5290 O             1 RES     
   14810 OS         136.2370    83.6100    13.1820 OS            1 RES     
   14811 O          107.7920    69.5000     3.2450 O             1 RES     
   14812 Si         139.0220    89.1650     3.7950 Si            1 RES     
   14813 O          138.6900    89.3440     5.2950 O             1 RES     
   14814 Si         120.5840    96.4850     9.0350 Si            1 RES     
   14815 Si         126.1220    56.8770     3.7100 Si            1 RES     
   14816 O          120.6050    77.2480    10.9330 O             1 RES     
   14817 O          142.4750    93.0040     4.0240 O             1 RES     
   14818 O          148.6060    66.6050     3.7510 O             1 RES     
   14819 OS         131.7590    78.7610    13.1040 OS            1 RES     
   14820 O          117.4440    60.2380     6.5740 O             1 RES     
   14821 O          129.8050    59.3610     3.5760 O             1 RES     
   14822 O          124.9300    52.2730     5.9240 O             1 RES     
   14823 O          128.3520    60.3970     1.7180 O             1 RES     
   14824 O          145.0480    99.2860     3.9300 O             1 RES     
   14825 O          148.9510    91.4400     9.0160 O             1 RES     
   14826 Si         123.2200    94.8880     8.7860 Si            1 RES     
   14827 O          146.5110    80.6330     8.0910 O             1 RES     
   14828 Si         102.9310    70.3950    11.4460 Si            1 RES     
   14829 O          137.0440    86.4570     7.0990 O             1 RES     
   14830 OS         123.2340    95.3400    13.3730 OS            1 RES     
   14831 Si         104.5790    67.8720    12.0130 Si            1 RES     
   14832 O          131.9420    81.6430     9.0490 O             1 RES     
   14833 Si         120.8980    71.6300     7.9010 Si            1 RES     
   14834 O          120.6810    74.5750    10.5290 O             1 RES     
   14835 Si         149.8680    89.7510    11.6200 Si            1 RES     
   14836 O          146.8890    91.2540    10.2250 O             1 RES     
   14837 Si         141.9310    79.5470    10.6970 Si            1 RES     
   14838 O          100.9740    55.9620     6.5700 O             1 RES     
   14839 O          115.6560    84.3010     8.0550 O             1 RES     
   14840 O          111.1760    99.7570    10.1540 O             1 RES     
   14841 O          116.9850    70.3870     6.9930 O             1 RES     
   14842 O          121.1540    72.3680     9.2110 O             1 RES     
   14843 Si         107.0370    54.9610    12.2210 Si            1 RES     
   14844 O          109.8820    85.6720     2.0770 O             1 RES     
   14845 O          102.4470    50.3440    10.6000 O             1 RES     
   14846 Si         134.4530    95.6960    12.7250 Si            1 RES     
   14847 O          135.4760    50.9680    10.6270 O             1 RES     
   14848 O          138.3100    66.9160     6.8450 O             1 RES     
   14849 Si         149.5990    60.9130     3.3680 Si            1 RES     
   14850 O          130.3820    90.4390    11.8390 O             1 RES     
   14851 O          102.3780    98.0490     9.1800 O             1 RES     
   14852 O          111.9200    85.5030     8.8340 O             1 RES     
   14853 Si         111.6610    92.2820    11.3350 Si            1 RES     
   14854 O          116.2840    52.2140     9.1100 O             1 RES     
   14855 O          128.8800    73.1380     6.8910 O             1 RES     
   14856 Si         115.1530    58.2330     3.0780 Si            1 RES     
   14857 O          137.6080    66.6840     3.1480 O             1 RES     
   14858 O          116.5280    73.4710     4.8550 O             1 RES     
   14859 O          102.0400    69.3430    10.6480 O             1 RES     
   14860 O          126.6770    82.2300     8.4070 O             1 RES     
   14861 O          134.8490    95.1810     8.5100 O             1 RES     
   14862 O          144.2890    89.3050    11.3820 O             1 RES     
   14863 O          133.8490    70.4930    11.2560 O             1 RES     
   14864 O          122.5550    89.5800     2.1820 O             1 RES     
   14865 O          142.6690    91.1440    11.1220 O             1 RES     
   14866 O          101.5370    76.3480    11.4820 O             1 RES     
   14867 O          131.1460    96.0030     2.2060 O             1 RES     
   14868 O          106.7110    87.0250     8.4600 O             1 RES     
   14869 O          140.4520    76.0420     4.4160 O             1 RES     
   14870 Si         101.4310    79.3570     4.3530 Si            1 RES     
   14871 Si         129.4410    94.1440     6.3630 Si            1 RES     
   14872 Si         134.5620    87.2000    12.6940 Si            1 RES     
   14873 O          115.4150    67.9690     3.7480 O             1 RES     
   14874 O          148.6890    79.9460     9.1440 O             1 RES     
   14875 Si         119.7040    85.1190     4.3010 Si            1 RES     
   14876 Si         109.2350    90.2780     8.5050 Si            1 RES     
   14877 O          110.1700    72.6780     3.4770 O             1 RES     
   14878 O          128.0260    98.4980     3.9550 O             1 RES     
   14879 Si         110.2590    57.0960     4.3300 Si            1 RES     
   14880 Si         110.7680    50.3680     4.1590 Si            1 RES     
   14881 O          107.4330    83.4430    10.3300 O             1 RES     
   14882 O          137.5930    62.8270     9.0240 O             1 RES     
   14883 O          139.2760    99.7930     5.2960 O             1 RES     
   14884 Si         140.4220    72.1860     8.0240 Si            1 RES     
   14885 O          141.5440    80.2860     5.8490 O             1 RES     
   14886 Si         115.1180    73.4980     5.5180 Si            1 RES     
   14887 O          137.2250    94.6220     8.1630 O             1 RES     
   14888 Si         137.4620    79.9450     6.6480 Si            1 RES     
   14889 O          128.2940    52.3970     9.6980 O             1 RES     
   14890 Si         149.9060    66.3460     2.8790 Si            1 RES     
   14891 O          102.1370    71.5170    12.1680 O             1 RES     
   14892 O          143.6060    84.1830    10.4770 O             1 RES     
   14893 Si         140.0440    72.8680     2.7750 Si            1 RES     
   14894 Si         130.3540    99.4740    11.0060 Si            1 RES     
   14895 O          110.4660    78.0500     3.3230 O             1 RES     
   14896 O          143.5030    79.4090     4.0760 O             1 RES     
   14897 O          112.3350    84.3870    10.9070 O             1 RES     
   14898 Si         130.2830    85.4870    10.0540 Si            1 RES     
   14899 O          101.5180    57.7760    10.8100 O             1 RES     
   14900 OS         113.9350    98.6380    12.4890 OS            1 RES     
   14901 O          111.8470    65.4370     5.8870 O             1 RES     
   14902 Si         136.3330    91.9210    10.7280 Si            1 RES     
   14903 Si         135.4250    99.3560     9.7630 Si            1 RES     
   14904 O          120.1260    60.3950     6.6900 O             1 RES     
   14905 O          142.1540    53.4420    10.9540 O             1 RES     
   14906 OS         148.7590    54.2680    13.4230 OS            1 RES     
   14907 O          134.3070    95.7400    11.1810 O             1 RES     
   14908 Si         128.9580    69.7090    12.6810 Si            1 RES     
   14909 O          113.5450    52.5430     3.3690 O             1 RES     
   14910 Si         110.8420    76.5980     2.8430 Si            1 RES     
   14911 Si         120.2770    73.7320     5.6520 Si            1 RES     
   14912 Si         114.4350    88.4700     8.2500 Si            1 RES     
   14913 O          114.3810    88.4590    11.4540 O             1 RES     
   14914 Si         140.9010    57.9910    12.3730 Si            1 RES     
   14915 Si         104.0140    62.4090     2.8490 Si            1 RES     
   14916 O          146.4900    55.3760     6.6270 O             1 RES     
   14917 O          143.7220    55.6280     2.8890 O             1 RES     
   14918 OS         109.7740    58.0690    12.8280 OS            1 RES     
   14919 O          111.2780    72.8880     6.1010 O             1 RES     
   14920 Si         134.9060    69.1140     7.6960 Si            1 RES     
   14921 O          114.3030    57.0030     3.5270 O             1 RES     
   14922 O          107.6360    54.7540     3.4860 O             1 RES     
   14923 O          101.1770    86.5940     7.9670 O             1 RES     
   14924 Si         141.8900    86.6090     5.6030 Si            1 RES     
   14925 Si         108.3270    74.6850    10.8860 Si            1 RES     
   14926 Si         148.5580    87.0190     4.7550 Si            1 RES     
   14927 O          118.0280    74.1480     2.7820 O             1 RES     
   14928 O          138.2120    90.3700     3.1680 O             1 RES     
   14929 O          113.2290    68.9340     4.1960 O             1 RES     
   14930 O          101.5240    92.1600     5.3490 O             1 RES     
   14931 O          134.2080    91.4020     2.9950 O             1 RES     
   14932 O          109.9340    80.2440     7.3410 O             1 RES     
   14933 O          102.0630    65.5610     2.9380 O             1 RES     
   14934 Si         127.0240    78.3330     8.6310 Si            1 RES     
   14935 O          135.8430    55.7330    11.5410 O             1 RES     
   14936 O          127.5350    52.5990     5.9240 O             1 RES     
   14937 Si         143.6470    56.3850     4.3100 Si            1 RES     
   14938 O          142.4490    95.0810     5.6010 O             1 RES     
   14939 O          138.6840    84.5900     7.1850 O             1 RES     
   14940 Si         143.7680    76.7680     6.7440 Si            1 RES     
   14941 O          147.2250    76.1170     2.2900 O             1 RES     
   14942 O          104.9090    67.5310    10.4690 O             1 RES     
   14943 O          128.7750    55.2600     1.7050 O             1 RES     
   14944 Si         131.4390    71.9590     5.0050 Si            1 RES     
   14945 Si         121.4930    60.7350     7.5580 Si            1 RES     
   14946 O          113.9710    56.4620     5.8890 O             1 RES     
   14947 O          133.0330    63.1450     8.0570 O             1 RES     
   14948 Si         134.9240    83.4730     4.7240 Si            1 RES     
   14949 OS         126.3210    82.7020    13.5690 OS            1 RES     
   14950 Si         131.5440    91.4570    12.4750 Si            1 RES     
   14951 O          129.3740    93.0310     2.4190 O             1 RES     
   14952 O          125.4890    63.7300    12.0520 O             1 RES     
   14953 Si         141.1940    75.4280     5.6740 Si            1 RES     
   14954 Si         125.0190    83.6200     4.5810 Si            1 RES     
   14955 O          125.8520    87.3180     4.9610 O             1 RES     
   14956 O          126.2680    72.5560     2.5550 O             1 RES     
   14957 O          133.7020    53.5210     8.8710 O             1 RES     
   14958 Si         149.5320    86.2110     7.5480 Si            1 RES     
   14959 O          107.9020    62.8950     5.8120 O             1 RES     
   14960 Si         132.6620    71.5750    11.0900 Si            1 RES     
   14961 Si         141.8410    87.7970     9.8630 Si            1 RES     
   14962 O          124.8970    88.6820     9.4090 O             1 RES     
   14963 O          119.4320    80.9940     8.6450 O             1 RES     
   14964 O          123.0340    56.4600    10.7360 O             1 RES     
   14965 Si         106.1230    71.0220     6.0700 Si            1 RES     
   14966 O          126.2580    57.8970     4.8800 O             1 RES     
   14967 O          124.7020    77.8820     4.0000 O             1 RES     
   14968 O          106.7870    93.4910    11.0880 O             1 RES     
   14969 O          104.7200    76.2960     6.7230 O             1 RES     
   14970 O          137.7030    78.5370     7.3720 O             1 RES     
   14971 O          134.9560    83.9470    11.0150 O             1 RES     
   14972 O          114.4000    71.2030    10.7780 O             1 RES     
   14973 OS         117.2170    74.9120    13.6390 OS            1 RES     
   14974 O          104.4340    96.6510     3.6400 O             1 RES     
   14975 O          130.7400    91.4030     3.7310 O             1 RES     
   14976 O          104.3840    63.3880    11.0640 O             1 RES     
   14977 O          122.1030    61.6210    13.7130 O             1 RES     
   14978 Si         131.4340    97.1230     9.0250 Si            1 RES     
   14979 OS         136.8030    92.6740    12.0850 OS            1 RES     
   14980 Si         122.1270    85.1590     9.6950 Si            1 RES     
   14981 Si         104.3300    91.3140     8.1820 Si            1 RES     
   14982 O          140.7490    78.5730    10.2950 O             1 RES     
   14983 O          132.6930    90.5850     4.9870 O             1 RES     
   14984 O          131.9860    53.9110     4.1460 O             1 RES     
   14985 O          145.5510    59.8530     8.1410 O             1 RES     
   14986 Si         130.2600    76.5190     5.2240 Si            1 RES     
   14987 Si         130.8330    66.8930    12.4020 Si            1 RES     
   14988 Si         133.1600    78.3150     9.5480 Si            1 RES     
   14989 OS         144.0770    97.9320    12.2840 OS            1 RES     
   14990 O          147.5480    88.0060     5.6180 O             1 RES     
   14991 Si         137.6450    77.2860     8.3550 Si            1 RES     
   14992 OS         127.5640    74.5850    13.4620 OS            1 RES     
   14993 O          107.1940    74.1080     3.5390 O             1 RES     
   14994 Si         116.4750    50.4530     5.0370 Si            1 RES     
   14995 OS         119.0150    83.9640    12.9490 OS            1 RES     
   14996 Si         113.7360    96.8480     4.7960 Si            1 RES     
   14997 O          145.7160    53.1720     7.7260 O             1 RES     
   14998 O          147.2460    93.8840     6.4930 O             1 RES     
   14999 O          133.8920    57.0090    12.1530 O             1 RES     
   15000 Si         139.0750    55.0900     3.8950 Si            1 RES     
   15001 O          107.5480    71.7370     2.2120 O             1 RES     
   15002 O          138.7150    61.9880     2.8450 O             1 RES     
   15003 O          117.3960    95.5620     7.7220 O             1 RES     
   15004 Si         125.4570    50.0150     8.9280 Si            1 RES     
   15005 O          126.8410    81.3830    11.3970 O             1 RES     
   15006 Si         106.6870    78.7520     8.6050 Si            1 RES     
   15007 O          122.9350    58.4130     3.4420 O             1 RES     
   15008 O          139.6580    73.4910     8.2180 O             1 RES     
   15009 O          140.5220    63.4140     7.5850 O             1 RES     
   15010 O          112.5910    90.7200     5.2870 O             1 RES     
   15011 OS         129.9960    71.1650    13.4540 OS            1 RES     
   15012 Si         141.0860    62.8460     6.2010 Si            1 RES     
   15013 Si         116.5360    92.3980     6.8450 Si            1 RES     
   15014 O          105.2850    79.5070     8.5800 O             1 RES     
   15015 Si         145.8050    76.2980     2.8180 Si            1 RES     
   15016 O          113.0470    96.5060     7.9250 O             1 RES     
   15017 O          100.7180    99.8240     8.9760 O             1 RES     
   15018 Si         111.1980    85.2150    10.2120 Si            1 RES     
   15019 O          116.1250    77.2630     7.1250 O             1 RES     
   15020 O          142.0090    58.9310     6.7160 O             1 RES     
   15021 O          129.4600    57.4260     7.0500 O             1 RES     
   15022 Si         124.4940    66.1220     5.1530 Si            1 RES     
   15023 O          114.2950    74.3120     4.4240 O             1 RES     
   15024 O          129.1570    82.0700     6.3030 O             1 RES     
   15025 O          116.2070    92.0650     2.8460 O             1 RES     
   15026 Si         109.1930    52.1070     6.1930 Si            1 RES     
   15027 O          122.3780    60.9030     3.1270 O             1 RES     
   15028 O          129.5450    77.8690     5.5900 O             1 RES     
   15029 Si         109.7130    85.8030     6.0890 Si            1 RES     
   15030 O          116.2530    89.6080     2.5560 O             1 RES     
   15031 O          136.1380    84.2730     4.0100 O             1 RES     
   15032 O          138.8820    92.7470     2.5550 O             1 RES     
   15033 O          141.4980    54.0980     6.5750 O             1 RES     
   15034 O          144.7810    91.7280     3.7870 O             1 RES     
   15035 Si         121.5530    87.3940     5.0980 Si            1 RES     
   15036 O          115.2540    96.7190     5.0130 O             1 RES     
   15037 Si         148.3050    58.8110     5.0710 Si            1 RES     
   15038 Si         119.3380    86.4260     9.9850 Si            1 RES     
   15039 O          147.7060    58.7760     8.5610 O             1 RES     
   15040 O          116.0610    56.3310     7.6540 O             1 RES     
   15041 Si         107.5970    65.8860     3.3550 Si            1 RES     
   15042 Si         133.3320    92.4600    10.1280 Si            1 RES     
   15043 Si         146.0100    86.0040     3.3990 Si            1 RES     
   15044 O          146.9380    90.5590     4.9240 O             1 RES     
   15045 Si         114.4050    68.2450     4.9420 Si            1 RES     
   15046 O          146.1040    61.4080     5.6420 O             1 RES     
   15047 O          127.3830    58.8200     6.7370 O             1 RES     
   15048 O          131.8700    65.0560     3.2500 O             1 RES     
   15049 Si         115.9070    60.0890     6.7220 Si            1 RES     
   15050 O          110.8390    65.5770    10.8400 O             1 RES     
   15051 Si         103.8790    73.8550     9.3030 Si            1 RES     
   15052 O          110.9570    71.5610     8.4690 O             1 RES     
   15053 Si         107.0870    77.4220    11.3940 Si            1 RES     
   15054 O          142.1170    70.9600    11.0440 O             1 RES     
   15055 O          141.2090    56.6220     7.2350 O             1 RES     
   15056 Si         103.2300    66.7320     5.8630 Si            1 RES     
   15057 O          125.0490    91.8660     6.4780 O             1 RES     
   15058 Si         101.2730    94.7730    10.5840 Si            1 RES     
   15059 O          102.6120    96.4420     7.0790 O             1 RES     
   15060 O          113.6390    99.8840    10.2120 O             1 RES     
   15061 O          130.6700    84.1810     9.2810 O             1 RES     
   15062 Si         141.1270    92.6480     8.1450 Si            1 RES     
   15063 O          140.0150    56.7220    12.7820 O             1 RES     
   15064 OS         146.5220    64.8410    13.6800 OS            1 RES     
   15065 O          119.5030    87.4470    11.1780 O             1 RES     
   15066 O          140.1420    68.5980     7.4890 O             1 RES     
   15067 O          106.4810    95.2430    12.8770 O             1 RES     
   15068 O          103.6000    94.9390     4.7370 O             1 RES     
   15069 O          140.1310    82.9500    10.1810 O             1 RES     
   15070 Si         126.6890    66.7210     3.0580 Si            1 RES     
   15071 O          107.4210    83.3580     4.5400 O             1 RES     
   15072 O          147.3600    82.4420     2.6270 O             1 RES     
   15073 O          138.3920    95.2230     3.4960 O             1 RES     
   15074 O          102.3880    68.0540     6.4230 O             1 RES     
   15075 O          125.3700    86.4550     2.4690 O             1 RES     
   15076 O          133.4470    63.1420     3.1830 O             1 RES     
   15077 OS         124.0410    73.1650    13.5520 OS            1 RES     
   15078 O          136.7380    84.8560     9.1230 O             1 RES     
   15079 O          143.6660    85.3340     8.4330 O             1 RES     
   15080 O          139.8860    52.2040    10.2160 O             1 RES     
   15081 OS         149.6020    62.7850    13.2680 OS            1 RES     
   15082 O          133.9400    74.2910     2.7330 O             1 RES     
   15083 O          111.1720    68.9820     5.3790 O             1 RES     
   15084 O          114.0480    59.3350     3.0620 O             1 RES     
   15085 O          142.7380    84.8950     2.7400 O             1 RES     
   15086 O          145.4570    80.3800     2.5570 O             1 RES     
   15087 O          134.2480    85.0790     8.7640 O             1 RES     
   15088 O          114.3800    76.3200    10.8220 O             1 RES     
   15089 Si         105.3480    99.4170    12.7330 Si            1 RES     
   15090 O          141.5300    61.3990     6.3670 O             1 RES     
   15091 O          146.0850    85.4200     1.9540 O             1 RES     
   15092 Si         111.4050    72.6560     4.4670 Si            1 RES     
   15093 Si         105.4440    96.3220    12.6150 Si            1 RES     
   15094 O          147.9650    53.8760     8.0230 O             1 RES     
   15095 O          122.6100    74.2770     9.1200 O             1 RES     
   15096 O          108.7410    53.2920     5.2770 O             1 RES     
   15097 O          143.1120    63.3500    10.8740 O             1 RES     
   15098 O          140.3440    98.4660     7.4730 O             1 RES     
   15099 OS         103.4810    54.3130    11.9250 OS            1 RES     
   15100 O          115.4450    87.0720    13.3770 O             1 RES     
   15101 O          130.5520    82.6320    11.0970 O             1 RES     
   15102 O          114.9040    63.0700     7.7000 O             1 RES     
   15103 Si         143.4640    84.5120     4.1050 Si            1 RES     
   15104 O          137.2750    91.3190     6.3480 O             1 RES     
   15105 O          116.5790    58.1120     3.7590 O             1 RES     
   15106 O          144.9030    67.5790     9.8250 O             1 RES     
   15107 O          142.4170    73.6620    11.1840 O             1 RES     
   15108 Si         111.8210    69.6120     4.0960 Si            1 RES     
   15109 O          104.2290    54.2180     9.5200 O             1 RES     
   15110 O          111.9240    53.5670     7.9060 O             1 RES     
   15111 Si         123.2640    78.3340     4.5650 Si            1 RES     
   15112 Si         110.6550    65.6260     6.9070 Si            1 RES     
   15113 Si         116.6240    97.4700     4.8540 Si            1 RES     
   15114 O          142.4230    93.5150    11.6360 O             1 RES     
   15115 O          144.6300    63.0840     4.7050 O             1 RES     
   15116 O          124.8870    73.7760     8.7800 O             1 RES     
   15117 Si         144.1340    64.4970    10.5390 Si            1 RES     
   15118 O          101.7890    61.3740     9.7400 O             1 RES     
   15119 Si         136.3550    98.1240     7.1680 Si            1 RES     
   15120 O          110.2310    99.0210     4.5630 O             1 RES     
   15121 O          128.3610    74.1750     9.0730 O             1 RES     
   15122 O          120.6590    93.6390     4.2780 O             1 RES     
   15123 Si         119.3750    91.1540     7.3020 Si            1 RES     
   15124 O          130.9560    61.5940     8.6360 O             1 RES     
   15125 OS         118.8340    59.1030    13.2000 OS            1 RES     
   15126 OS         118.5960    67.9340    13.0090 OS            1 RES     
   15127 O          146.4730    51.5150     3.5410 O             1 RES     
   15128 O          112.2390    75.8070     3.0760 O             1 RES     
   15129 O          134.3740    71.7230     2.4900 O             1 RES     
   15130 O          107.1170    99.6020     8.2970 O             1 RES     
   15131 O          107.2630    90.2660     5.4760 O             1 RES     
   15132 Si         105.9150    89.6130     6.0160 Si            1 RES     
   15133 Si         109.3260    80.2780     8.7720 Si            1 RES     
   15134 O          121.8550    62.2470     7.6560 O             1 RES     
   15135 Si         132.0220    95.5090     3.4310 Si            1 RES     
   15136 Si         126.3280    86.2830     3.8650 Si            1 RES     
   15137 Si         129.2960    99.2110     4.6370 Si            1 RES     
   15138 Si         109.8470    99.8200    11.0250 Si            1 RES     
   15139 O          123.2350    87.5940     5.5630 O             1 RES     
   15140 O          104.4610    54.4630     6.6550 O             1 RES     
   15141 O          137.6840    54.5540     4.2990 O             1 RES     
   15142 O          108.1540    93.7040     6.2390 O             1 RES     
   15143 O          116.5850    53.8740     7.1990 O             1 RES     
   15144 Si         143.4070    64.0150     4.5790 Si            1 RES     
   15145 O          129.2980    88.8270     7.6790 O             1 RES     
   15146 O          129.3870    71.7350     9.2020 O             1 RES     
   15147 Si         119.1950    99.8120     3.6240 Si            1 RES     
   15148 O          138.6720    88.0910    11.0390 O             1 RES     
   15149 Si         137.7770    85.5230     8.0530 Si            1 RES     
   15150 O          100.8420    73.7000    11.6950 O             1 RES     
   15151 Si         145.3090    96.5390     8.6930 Si            1 RES     
   15152 O          140.1670    82.8790     5.9980 O             1 RES     
   15153 O          149.4920    62.2080     4.3130 O             1 RES     
   15154 Si         143.2470    68.1450     6.8110 Si            1 RES     
   15155 O          101.2610    95.9670     4.7330 O             1 RES     
   15156 O          120.5560    56.5140    11.2540 O             1 RES     
   15157 Si         146.4700    71.9070     5.5860 Si            1 RES     
   15158 O          133.7270    54.7470    11.2180 O             1 RES     
   15159 O          148.7680    89.6940    10.5490 O             1 RES     
   15160 Si         103.4020    51.0840     6.7640 Si            1 RES     
   15161 O          121.3330    51.8710    11.3530 O             1 RES     
   15162 O          135.5060    61.1090     6.4490 O             1 RES     
   15163 O          126.7580    54.1720     8.6430 O             1 RES     
   15164 O          144.5140    78.1680    12.7980 O             1 RES     
   15165 O          137.1250    54.6340     6.7400 O             1 RES     
   15166 Si         142.0090    58.7670     3.2600 Si            1 RES     
   15167 Si         146.1000    62.5440     4.5270 Si            1 RES     
   15168 OS         149.5030    90.8540    12.6370 OS            1 RES     
   15169 O          111.7300    61.3630    10.8470 O             1 RES     
   15170 Si         110.5060    53.9990     8.3070 Si            1 RES     
   15171 O          126.4340    92.8610    11.3620 O             1 RES     
   15172 OS         110.2690    70.2770    12.7150 OS            1 RES     
   15173 O          104.0880    56.5780     5.0410 O             1 RES     
   15174 Si         104.7960    95.1350     3.8250 Si            1 RES     
   15175 Si         117.2500    86.7620     5.3500 Si            1 RES     
   15176 O          122.6580    85.0170     8.1920 O             1 RES     
   15177 O          104.7760    61.3850     3.7570 O             1 RES     
   15178 Si         102.1730    80.1660    10.6390 Si            1 RES     
   15179 OS         129.6660    59.5910    12.2180 OS            1 RES     
   15180 O          103.1690    61.5260     1.8630 O             1 RES     
   15181 Si         101.5830    69.4170     6.7290 Si            1 RES     
   15182 Si         104.1910    80.4610     4.9740 Si            1 RES     
   15183 O          118.7420    69.2920     3.6040 O             1 RES     
   15184 OS         129.6860    94.8840    11.6080 OS            1 RES     
   15185 Si         121.1900    92.2330     4.8640 Si            1 RES     
   15186 O          130.7800    70.5740     4.9990 O             1 RES     
   15187 O          119.1700    69.3410     6.1340 O             1 RES     
   15188 Si         121.9210    55.8130    11.6850 Si            1 RES     
   15189 O          130.8090    66.9810     1.4340 O             1 RES     
   15190 O          119.2280    84.6030     2.8800 O             1 RES     
   15191 Si         104.1090    55.0000     5.1770 Si            1 RES     
   15192 O          106.3600    68.8940     8.8740 O             1 RES     
   15193 O          106.2940    50.6990     3.4020 O             1 RES     
   15194 O          115.1280    53.2530    11.2180 O             1 RES     
   15195 Si         124.5940    66.9940    10.8350 Si            1 RES     
   15196 Si         112.2190    97.6710     7.2280 Si            1 RES     
   15197 O          137.6340    93.1750     4.6860 O             1 RES     
   15198 OS         140.8040    59.0420    13.7160 OS            1 RES     
   15199 Si         127.3070    95.2360     8.2250 Si            1 RES     
   15200 O          133.9980    72.9060     7.6760 O             1 RES     
   15201 O          145.1190    87.2770     3.0810 O             1 RES     
   15202 O          106.8140    97.4990     9.5180 O             1 RES     
   15203 O          114.2680    93.1000     4.5660 O             1 RES     
   15204 O          141.9410    88.7310    11.1050 O             1 RES     
   15205 O          105.3760    90.2880     7.4140 O             1 RES     
   15206 O          140.1690    93.8500     4.6990 O             1 RES     
   15207 O          127.7100    90.7150     6.5120 O             1 RES     
   15208 O          140.9140    91.0570     8.2180 O             1 RES     
   15209 O          130.0460    90.2740     5.7160 O             1 RES     
   15210 O          117.3190    97.0070     3.5200 O             1 RES     
   15211 Si         132.9580    54.0070    10.1090 Si            1 RES     
   15212 Si         134.8320    84.0840    12.5900 Si            1 RES     
   15213 OS         107.6280    93.2180    13.5850 OS            1 RES     
   15214 Si         147.7210    76.6370     7.6180 Si            1 RES     
   15215 O          130.9160    76.5840     3.7620 O             1 RES     
   15216 O          123.9220    92.3280    12.3240 O             1 RES     
   15217 OS         125.8880    90.5100    13.6960 OS            1 RES     
   15218 O          136.9150    65.8830     8.6820 O             1 RES     
   15219 O          121.1230    97.8380     9.4230 O             1 RES     
   15220 O          144.2260    51.4090     2.5910 O             1 RES     
   15221 O          121.3940    74.2170     4.6260 O             1 RES     
   15222 OS         138.1040    75.3190    12.6240 OS            1 RES     
   15223 Si         132.5640    61.8050     8.6730 Si            1 RES     
   15224 O          133.7820    68.0900     7.4940 O             1 RES     
   15225 OS         109.2800    89.5730    11.9060 OS            1 RES     
   15226 O          101.9720    51.2120     6.1930 O             1 RES     
   15227 O          146.1200    97.9080     8.9550 O             1 RES     
   15228 O          115.0400    95.0910     8.8960 O             1 RES     
   15229 O          140.8230    75.8370     1.9520 O             1 RES     
   15230 O          105.1570    83.7200     3.2020 O             1 RES     
   15231 Si         143.0790    97.3120    11.1950 Si            1 RES     
   15232 O          109.7870    91.1050     4.7360 O             1 RES     
   15233 O          106.1870    60.7460     5.5900 O             1 RES     
   15234 O          134.0590    99.7060     8.3830 O             1 RES     
   15235 O          146.9490    92.9200     4.2110 O             1 RES     
   15236 O          140.5380    89.4770     3.5280 O             1 RES     
   15237 O          125.0980    98.5330     8.5770 O             1 RES     
   15238 Si         133.8420    95.4100     9.7360 Si            1 RES     
   15239 O          101.0700    79.6330     2.7850 O             1 RES     
   15240 O          131.7480    96.3360     4.7500 O             1 RES     
   15241 O          146.7180    93.3970    11.7750 O             1 RES     
   15242 O          145.9950    75.4950     4.1030 O             1 RES     
   15243 Si         124.4620    70.2280     4.2260 Si            1 RES     
   15244 O          101.2180    90.0580    10.7650 O             1 RES     
   15245 O          149.7400    69.9800    10.4620 O             1 RES     
   15246 O          136.5850    57.6310    10.1330 O             1 RES     
   15247 O          132.3760    99.8430     3.1810 O             1 RES     
   15248 OS         129.5430    99.3210    12.4220 OS            1 RES     
   15249 Si         138.2170    98.4220    11.3390 Si            1 RES     
   15250 O          121.5430    81.5880     9.9880 O             1 RES     
   15251 O          134.2360    77.1980    10.1070 O             1 RES     
   15252 Si         128.9930    55.7800     3.1930 Si            1 RES     
   15253 O          116.7080    62.7920     9.7260 O             1 RES     
   15254 OS         108.3120    78.2320    12.0050 OS            1 RES     
   15255 Si         117.5100    75.8340    12.3960 Si            1 RES     
   15256 O          113.1120    95.4360     5.0930 O             1 RES     
   15257 O          108.6580    88.8890     7.8230 O             1 RES     
   15258 O          125.4570    80.2240     5.8030 O             1 RES     
   15259 OS         115.4610    80.9980    12.0200 OS            1 RES     
   15260 OS         120.9830    67.0100    12.4260 OS            1 RES     
   15261 O          102.5790    73.0990     5.9300 O             1 RES     
   15262 Si         123.6140    70.2550     7.2040 Si            1 RES     
   15263 O          112.8580    78.5260    10.3000 O             1 RES     
   15264 Si         149.4750    81.2930     5.8120 Si            1 RES     
   15265 O          130.2560    57.0160    13.1400 O             1 RES     
   15266 O          101.0510    92.4950     2.7780 O             1 RES     
   15267 O          147.2880    89.8280     7.4040 O             1 RES     
   15268 Si         118.5590    96.0310     6.8330 Si            1 RES     
   15269 Si         134.5940    62.1700     2.8700 Si            1 RES     
   15270 Si         122.8780    82.3050    10.6540 Si            1 RES     
   15271 O          140.5280    65.8970     7.9670 O             1 RES     
   15272 O          149.8640    71.4210    12.6100 O             1 RES     
   15273 Si         142.2390    53.0160     7.4680 Si            1 RES     
   15274 OS         103.7080    82.8340    13.4430 OS            1 RES     
   15275 OS         102.5300    84.7780    12.6110 OS            1 RES     
   15276 O          149.6160    66.5430    11.2260 O             1 RES     
   15277 Si         127.6710    75.6370    12.2540 Si            1 RES     
   15278 O          109.4760    75.8230     3.2250 O             1 RES     
   15279 OS         116.1200    68.1080    12.2320 OS            1 RES     
   15280 Si         102.5000    86.8800     8.8330 Si            1 RES     
   15281 O          110.4580    69.5140    10.2270 O             1 RES     
   15282 O          131.5910    50.4320    11.3760 O             1 RES     
   15283 O          106.2520    53.0190     2.5250 O             1 RES     
   15284 O          123.7620    70.4510     5.6460 O             1 RES     
   15285 O          106.4440    78.1370     2.6900 O             1 RES     
   15286 Si         132.9600    66.8100     7.8490 Si            1 RES     
   15287 O          145.8420    62.2230     2.9200 O             1 RES     
   15288 Si         132.2490    84.8590     5.3880 Si            1 RES     
   15289 O          143.5730    69.3770     5.9410 O             1 RES     
   15290 O          141.4800    61.2340    10.4330 O             1 RES     
   15291 O          127.1300    69.9590    11.9050 O             1 RES     
   15292 O          143.1120    59.0960     2.1700 O             1 RES     
   15293 O          115.5340    75.4820     8.9350 O             1 RES     
   15294 O          128.6790    73.3450     2.1370 O             1 RES     
   15295 O          144.5210    67.3100     6.5560 O             1 RES     
   15296 O          113.6740    94.1950     7.0730 O             1 RES     
   15297 OS         114.3730    64.0060    12.1490 OS            1 RES     
   15298 O          115.2320    74.6720     6.5390 O             1 RES     
   15299 O          110.0290    55.5380     8.3100 O             1 RES     
   15300 Si         125.5300    72.6310     7.8570 Si            1 RES     
   15301 O          102.1790    97.9090     3.7720 O             1 RES     
   15302 Si         128.9950    73.7520     5.4270 Si            1 RES     
   15303 Si         103.1650    60.6790    10.1300 Si            1 RES     
   15304 O          116.2890    78.8230     5.1010 O             1 RES     
   15305 O          117.3520    82.1840     7.5460 O             1 RES     
   15306 O          134.8070    89.4040     4.0380 O             1 RES     
   15307 Si         136.5260    92.5080     5.6500 Si            1 RES     
   15308 O          119.9540    56.7290     6.2850 O             1 RES     
   15309 O          104.6190    62.9200    13.5930 O             1 RES     
   15310 O          102.3390    54.1420     7.6210 O             1 RES     
   15311 O          141.9660    80.8780     9.8350 O             1 RES     
   15312 Si         135.8660    99.2400     2.9200 Si            1 RES     
   15313 O          108.7220    68.7280     5.6150 O             1 RES     
   15314 OS         114.6250    53.0450    13.8430 OS            1 RES     
   15315 Si         135.9630    87.4350     6.4760 Si            1 RES     
   15316 Si         105.4570    65.2780     7.5350 Si            1 RES     
   15317 OS         127.9400    64.5790    12.6080 OS            1 RES     
   15318 Si         143.3240    91.8310     3.2860 Si            1 RES     
   15319 Si         143.4030    96.2690     6.1900 Si            1 RES     
   15320 Si         129.6460    61.3040     7.7860 Si            1 RES     
   15321 O          136.5260    64.3320    10.5830 O             1 RES     
   15322 O          136.0060    93.7990     6.4990 O             1 RES     
   15323 Si         108.0120    64.4310     6.0600 Si            1 RES     
   15324 O          138.2490    68.3300     8.8490 O             1 RES     
   15325 O          143.7310    69.8350     3.3930 O             1 RES     
   15326 O          127.6680    85.9060     3.0870 O             1 RES     
   15327 O          100.4900    93.5340    10.0180 O             1 RES     
   15328 O          113.6420    85.4190     6.9260 O             1 RES     
   15329 O          112.7540    61.4440     2.6230 O             1 RES     
   15330 Si         112.9910    77.1330    10.9580 Si            1 RES     
   15331 Si         123.8630    95.8620    11.9930 Si            1 RES     
   15332 O          122.2970    98.3590     5.3120 O             1 RES     
   15333 Si         125.9610    55.2320     7.8690 Si            1 RES     
   15334 O          124.2940    51.8930     2.7680 O             1 RES     
   15335 O          116.4760    87.7040     4.3180 O             1 RES     
   15336 OS         122.5200    99.9330    12.4180 OS            1 RES     
   15337 O          138.9960    56.4630     3.1540 O             1 RES     
   15338 Si         110.7150    81.6810    12.0640 Si            1 RES     
   15339 O          134.5510    85.6090    12.8760 O             1 RES     
   15340 Si         140.2900    67.2020     6.6710 Si            1 RES     
   15341 O          100.1750    67.8730     2.5890 O             1 RES     
   15342 O          144.9450    75.3230     1.8730 O             1 RES     
   15343 O          125.4540    66.6890     4.0590 O             1 RES     
   15344 O          121.2320    91.1290     3.7910 O             1 RES     
   15345 O          147.9910    70.1320     7.5240 O             1 RES     
   15346 O          128.9260    51.4310     7.6320 O             1 RES     
   15347 Si         124.1400    56.9550     9.6920 Si            1 RES     
   15348 Si         110.0460    95.8610    12.3140 Si            1 RES     
   15349 O          119.5920    96.6460     7.8140 O             1 RES     
   15350 O          149.2820    63.9790     6.4470 O             1 RES     
   15351 Si         132.7610    80.8370     8.0090 Si            1 RES     
   15352 OS         136.0280    69.1090    11.6440 OS            1 RES     
   15353 O          125.9280    86.2850     9.9660 O             1 RES     
   15354 Si         108.0890    59.1650     3.4690 Si            1 RES     
   15355 O          107.4840    93.0870     8.6110 O             1 RES     
   15356 O          101.1320    77.7500     4.4110 O             1 RES     
   15357 Si         141.8280    98.1740     7.9800 Si            1 RES     
   15358 Si         138.2600    59.3290     6.6120 Si            1 RES     
   15359 O          140.4440    95.0910    11.7210 O             1 RES     
   15360 O          122.1720    78.9880    12.0870 O             1 RES     
   15361 O          122.5850    92.3680     5.5940 O             1 RES     
   15362 OS         106.3640    50.9860    13.3560 OS            1 RES     
   15363 O          121.1010    68.6210     4.3820 O             1 RES     
   15364 O          128.6020    75.5380    10.9880 O             1 RES     
   15365 Si         145.1290    66.0420     5.8950 Si            1 RES     
   15366 O          148.0560    95.4530    12.2910 O             1 RES     
   15367 O          113.8490    63.9900     5.4690 O             1 RES     
   15368 Si         141.6930    72.5180     5.2840 Si            1 RES     
   15369 O          107.7250    60.1780     9.7690 O             1 RES     
   15370 O          115.1780    91.4640     6.7210 O             1 RES     
   15371 O          100.5540    74.3760     6.7230 O             1 RES     
   15372 Si         138.2510    89.6490    11.1770 Si            1 RES     
   15373 O          113.2470    54.9020     3.6700 O             1 RES     
   15374 O          137.0490    58.3670     5.3170 O             1 RES     
   15375 O          118.5340    59.5700     4.7320 O             1 RES     
   15376 O          128.1010    57.5450     8.9600 O             1 RES     
   15377 O          104.4450    99.1510     3.9220 O             1 RES     
   15378 Si         134.1500    50.2340     6.9910 Si            1 RES     
   15379 O          128.9690    50.5530     5.4100 O             1 RES     
   15380 O          125.2910    95.2430    11.4690 O             1 RES     
   15381 O          148.5810    50.0460    12.8100 O             1 RES     
   15382 O          109.1010    91.7060     7.7430 O             1 RES     
   15383 OS         148.7460    66.5420    13.5350 OS            1 RES     
   15384 O          102.8580    81.2520    11.5010 O             1 RES     
   15385 O          128.9490    82.9340     4.0500 O             1 RES     
   15386 Si         146.1820    63.6870    12.6920 Si            1 RES     
   15387 O          122.4060    77.0210     4.5720 O             1 RES     
   15388 O          132.4200    72.4380     3.8130 O             1 RES     
   15389 Si         119.3320    87.9810     7.2560 Si            1 RES     
   15390 O          113.0730    83.9140    13.3170 O             1 RES     
   15391 OS         101.1850    99.5760    12.8470 OS            1 RES     
   15392 Si         123.2730    86.9670    11.8210 Si            1 RES     
   15393 O          125.0460    87.2640     7.3890 O             1 RES     
   15394 O          114.9480    69.2350     6.0250 O             1 RES     
   15395 O          120.8760    80.5270     2.4170 O             1 RES     
   15396 Si         147.2880    98.5670     9.7450 Si            1 RES     
   15397 Si         139.1580    55.4970    12.3780 Si            1 RES     
   15398 O          106.1050    85.7080     4.4190 O             1 RES     
   15399 O          136.5980    52.3970    12.3880 O             1 RES     
   15400 Si         115.4760    70.6070     6.7620 Si            1 RES     
   15401 O          114.5900    83.3570    11.3350 O             1 RES     
   15402 Si         117.0470    50.9500    12.4370 Si            1 RES     
   15403 O          102.3170    57.2640     8.3850 O             1 RES     
   15404 O          109.0200    86.3940     7.3610 O             1 RES     
   15405 OS         100.4130    86.1710    11.9020 OS            1 RES     
   15406 O          107.3160    67.2230    10.7510 O             1 RES     
   15407 O          148.3180    99.4250     8.8890 O             1 RES     
   15408 Si         146.3050    57.2390    11.5810 Si            1 RES     
   15409 Si         100.9870    72.4530    12.7220 Si            1 RES     
   15410 O          126.4740    66.1000     1.6920 O             1 RES     
   15411 OS         112.6550    93.2920    11.9990 OS            1 RES     
   15412 OS         108.1300    53.5870    11.1090 OS            1 RES     
   15413 O          143.5260    55.4500    13.6310 O             1 RES     
   15414 O          112.0960    59.1050     6.9030 O             1 RES     
   15415 Si         134.7290    69.2200    10.7460 Si            1 RES     
   15416 O          109.8690    86.6850     4.6570 O             1 RES     
   15417 O          141.9290    67.3280     6.3350 O             1 RES     
   15418 O          109.4350    96.6280     4.5100 O             1 RES     
   15419 O          140.4240    58.4670     2.8820 O             1 RES     
   15420 Si         126.2590    57.5200    11.9100 Si            1 RES     
   15421 O          132.8230    96.4750     9.3520 O             1 RES     
   15422 Si         106.6160    72.6860     3.5980 Si            1 RES     
   15423 O          127.6590    76.8770     8.9330 O             1 RES     
   15424 Si         115.6720    93.1520     3.8470 Si            1 RES     
   15425 O          144.8030    75.8370     6.1180 O             1 RES     
   15426 O          112.3800    50.3960     4.1410 O             1 RES     
   15427 O          139.3280   124.2340     3.1580 O             1 RES     
   15428 O          108.4580   148.5390     6.1960 O             1 RES     
   15429 O          109.9370   134.3450     9.7080 O             1 RES     
   15430 O          127.9310   120.9500     2.9650 O             1 RES     
   15431 Si         134.0510   121.9090     6.4800 Si            1 RES     
   15432 O          131.4160   117.1410     7.9150 O             1 RES     
   15433 O          107.4230   125.4710     6.7820 O             1 RES     
   15434 O          147.1120   103.1090     5.5400 O             1 RES     
   15435 O          132.8980   107.8050     9.9470 O             1 RES     
   15436 Si         138.7810   111.9610     4.5220 Si            1 RES     
   15437 O          128.2200   107.4620    11.4690 O             1 RES     
   15438 O          141.5420   122.2820     9.1930 O             1 RES     
   15439 O          131.7550   101.9730    13.4760 O             1 RES     
   15440 Si         101.2140   126.3900     3.6200 Si            1 RES     
   15441 O          132.1660   142.1050     9.0280 O             1 RES     
   15442 O          126.2930   146.3710     7.6460 O             1 RES     
   15443 O          117.5360   125.3840     7.5700 O             1 RES     
   15444 OS         145.4190   133.1370    12.1080 OS            1 RES     
   15445 Si         137.4340   104.1390     8.1680 Si            1 RES     
   15446 O          135.4360   132.8570     8.7280 O             1 RES     
   15447 O          123.7070   124.5910     4.9950 O             1 RES     
   15448 O          109.6650   131.9680     5.7910 O             1 RES     
   15449 Si         145.4860   122.8860    10.2000 Si            1 RES     
   15450 Si         119.9930   118.2280    12.3350 Si            1 RES     
   15451 O          124.5250   130.7410     7.9630 O             1 RES     
   15452 O          132.6640   141.9310    11.4990 O             1 RES     
   15453 O          106.5590   127.3500     5.0100 O             1 RES     
   15454 Si         108.9520   133.0600     4.9870 Si            1 RES     
   15455 O          140.1130   125.9410     9.7650 O             1 RES     
   15456 O          120.6210   137.5380     6.4480 O             1 RES     
   15457 Si         124.6920   129.4830     6.9840 Si            1 RES     
   15458 Si         119.3940   115.7420     5.6330 Si            1 RES     
   15459 O          129.8760   111.7970     6.2890 O             1 RES     
   15460 O          137.9360   130.6050     3.1040 O             1 RES     
   15461 O          149.3000   143.1650     4.7740 O             1 RES     
   15462 O          149.2410   115.4300     8.7790 O             1 RES     
   15463 Si         116.0040   125.6960     7.5250 Si            1 RES     
   15464 O          110.2360   103.4110     9.6970 O             1 RES     
   15465 O          143.4210   128.2730     6.3950 O             1 RES     
   15466 O          100.1870   140.6520     3.9740 O             1 RES     
   15467 O          111.9330   136.8760     3.0060 O             1 RES     
   15468 Si         143.8870   100.3740     7.3530 Si            1 RES     
   15469 O          123.3580   112.3080    11.7210 O             1 RES     
   15470 Si         125.3870   141.5760    12.4880 Si            1 RES     
   15471 O          146.0860   121.2950     7.0170 O             1 RES     
   15472 O          121.7340   106.6160     4.3500 O             1 RES     
   15473 O          123.6280   138.4180    11.4120 O             1 RES     
   15474 O          148.4240   130.3200     6.4430 O             1 RES     
   15475 O          114.8410   123.7240    11.1040 O             1 RES     
   15476 O          113.8720   107.7270     8.0010 O             1 RES     
   15477 O          142.9320   135.6550     5.0210 O             1 RES     
   15478 Si         114.9580   122.2990    11.7660 Si            1 RES     
   15479 Si         101.3660   123.9370     5.4410 Si            1 RES     
   15480 OS         117.8410   137.7820    13.0870 OS            1 RES     
   15481 O          102.1070   145.4170     9.4240 O             1 RES     
   15482 Si         123.7100   128.9220    12.3920 Si            1 RES     
   15483 O          138.9530   135.4330    11.0830 O             1 RES     
   15484 O          118.9750   137.1960     8.6150 O             1 RES     
   15485 O          120.4090   149.8920     4.6600 O             1 RES     
   15486 OS         145.0010   136.9310    13.7540 OS            1 RES     
   15487 O          146.3590   138.6730     9.4100 O             1 RES     
   15488 Si         130.3630   142.9570     3.6210 Si            1 RES     
   15489 O          122.5390   100.6400     1.6870 O             1 RES     
   15490 Si         147.8950   143.8810     5.0840 Si            1 RES     
   15491 O          121.7380   145.4450     8.6830 O             1 RES     
   15492 O          129.7260   134.7920    11.3840 O             1 RES     
   15493 O          128.0750   105.0820    10.5820 O             1 RES     
   15494 Si         124.9300   147.1050     7.6980 Si            1 RES     
   15495 O          149.2420   147.3080     4.1190 O             1 RES     
   15496 O          130.4550   107.1310    10.0400 O             1 RES     
   15497 Si         123.1700   107.2460     4.4180 Si            1 RES     
   15498 O          122.6910   140.0080     9.8390 O             1 RES     
   15499 O          109.2430   134.4260     5.6130 O             1 RES     
   15500 Si         135.9510   145.0840     7.4200 Si            1 RES     
   15501 O          113.0020   114.6690    10.0680 O             1 RES     
   15502 Si         122.3030   118.2180     3.4300 Si            1 RES     
   15503 O          138.6920   144.6600     9.9650 O             1 RES     
   15504 Si         105.3750   136.6310     5.4460 Si            1 RES     
   15505 O          131.6610   106.9240     7.6810 O             1 RES     
   15506 OS         102.1040   144.4950    11.9170 OS            1 RES     
   15507 O          133.2710   137.6820     4.3090 O             1 RES     
   15508 O          134.7990   141.8550    10.2240 O             1 RES     
   15509 Si         120.4020   145.1770     4.5950 Si            1 RES     
   15510 Si         130.0820   117.9670     7.9450 Si            1 RES     
   15511 O          130.5780   143.3520     7.2540 O             1 RES     
   15512 O          119.3900   132.4830    10.8440 O             1 RES     
   15513 O          138.7970   147.0110    10.9690 O             1 RES     
   15514 Si         139.4990   119.3740     8.7080 Si            1 RES     
   15515 O          142.9490   138.5760     2.4350 O             1 RES     
   15516 Si         103.8240   129.5800     7.9930 Si            1 RES     
   15517 OS         126.1210   108.9700    12.5670 OS            1 RES     
   15518 O          137.3440   108.4030     7.9400 O             1 RES     
   15519 O          115.1020   137.0500     8.0510 O             1 RES     
   15520 O          109.6790   103.5510     2.8980 O             1 RES     
   15521 O          131.5790   143.9430     3.5960 O             1 RES     
   15522 Si         135.8900   112.3490     5.6510 Si            1 RES     
   15523 O          104.2640   109.0260     4.7800 O             1 RES     
   15524 O          144.0270   115.3980     4.9560 O             1 RES     
   15525 OS         138.3090   133.0360    11.9640 OS            1 RES     
   15526 Si         132.8510   129.5180    12.2650 Si            1 RES     
   15527 O          122.9350   141.4540     7.9210 O             1 RES     
   15528 O          130.0370   149.7050     3.3810 O             1 RES     
   15529 Si         103.5000   138.7530     4.4320 Si            1 RES     
   15530 O          138.2010   110.6540     7.5920 O             1 RES     
   15531 O          109.7210   144.1600     8.4230 O             1 RES     
   15532 O          138.4650   125.9060     8.1340 O             1 RES     
   15533 O          106.0940   116.2190     8.6880 O             1 RES     
   15534 OS         141.3560   136.3370    10.0850 OS            1 RES     
   15535 Si         115.1630   135.7140     7.3010 Si            1 RES     
   15536 O          107.6490   116.0520    13.1470 O             1 RES     
   15537 O          131.1850   107.8320     5.0870 O             1 RES     
   15538 O          124.1550   146.1000     8.5750 O             1 RES     
   15539 O          108.2810   106.0230    12.1260 O             1 RES     
   15540 O          145.3310   124.4320     9.8760 O             1 RES     
   15541 Si         125.6960   137.4590     8.8510 Si            1 RES     
   15542 O          149.6470   115.8970     1.3740 O             1 RES     
   15543 Si         115.9380   132.7240     8.1010 Si            1 RES     
   15544 Si         107.5200   144.1720    12.3700 Si            1 RES     
   15545 O          130.4440   123.0700     5.2210 O             1 RES     
   15546 O          146.7050   147.7370     5.0130 O             1 RES     
   15547 O          111.4490   107.4630     8.7760 O             1 RES     
   15548 Si         123.7950   101.6760     6.8390 Si            1 RES     
   15549 O          102.8600   130.0720     9.2260 O             1 RES     
   15550 Si         121.9800   130.9280     3.3940 Si            1 RES     
   15551 O          124.3500   118.9630     7.6670 O             1 RES     
   15552 O          108.7010   116.3040     2.2870 O             1 RES     
   15553 Si         122.5320   125.0840     4.1390 Si            1 RES     
   15554 O          103.2820   109.1310    10.0050 O             1 RES     
   15555 Si         118.5560   133.6670    11.4620 Si            1 RES     
   15556 O          139.1110   121.6780     2.3750 O             1 RES     
   15557 O          117.6690   129.6720     7.1160 O             1 RES     
   15558 Si         120.2150   106.4960     4.7090 Si            1 RES     
   15559 Si         126.0590   140.8180     5.8490 Si            1 RES     
   15560 O          128.9650   138.7850    10.2090 O             1 RES     
   15561 O          140.1500   116.6990     2.3940 O             1 RES     
   15562 Si         149.4280   100.5340     8.6050 Si            1 RES     
   15563 O          104.7720   121.7590     6.4550 O             1 RES     
   15564 O          124.2530   133.2980     7.8670 O             1 RES     
   15565 Si         110.7020   130.7490     6.1000 Si            1 RES     
   15566 O          142.6700   105.6730     5.2900 O             1 RES     
   15567 Si         114.2700   149.9640    11.6860 Si            1 RES     
   15568 O          106.6100   121.1300    10.0300 O             1 RES     
   15569 O          149.4510   111.8250    10.8060 O             1 RES     
   15570 O          141.1260   113.8420     9.8870 O             1 RES     
   15571 O          145.6810   115.0260     7.0230 O             1 RES     
   15572 O          146.7460   126.3010     8.8480 O             1 RES     
   15573 O          127.8520   130.1570     5.1630 O             1 RES     
   15574 O          114.0080   116.7380     5.3380 O             1 RES     
   15575 O          127.0560   141.8310     1.9940 O             1 RES     
   15576 Si         113.3490   124.6240     3.2190 Si            1 RES     
   15577 O          125.9020   134.8710     4.4290 O             1 RES     
   15578 O          120.1230   104.8830     4.5910 O             1 RES     
   15579 O          134.1470   115.1210    11.3000 O             1 RES     
   15580 Si         101.3730   122.1510     2.9220 Si            1 RES     
   15581 O          149.7900   125.9860     3.1710 O             1 RES     
   15582 O          132.2150   127.3290     8.7490 O             1 RES     
   15583 O          142.4190   113.5680     5.7240 O             1 RES     
   15584 O          137.2140   105.2770     9.2580 O             1 RES     
   15585 O          140.9980   123.4960     1.5910 O             1 RES     
   15586 OS         100.6460   127.9250    13.3760 OS            1 RES     
   15587 Si         100.8110   119.1590     9.6580 Si            1 RES     
   15588 O          130.5330   118.1760     4.0030 O             1 RES     
   15589 O          141.9850   133.4010     8.8860 O             1 RES     
   15590 O          106.9590   138.8170    12.1150 O             1 RES     
   15591 O          123.5630   128.8290     6.0310 O             1 RES     
   15592 Si         136.8960   106.1620    10.4730 Si            1 RES     
   15593 OS         130.9060   142.8970    12.8760 OS            1 RES     
   15594 O          122.3450   133.7720    10.4280 O             1 RES     
   15595 Si         138.7720   149.4470     3.8340 Si            1 RES     
   15596 Si         120.6320   128.6790    11.6590 Si            1 RES     
   15597 O          129.1060   109.9070     8.0490 O             1 RES     
   15598 O          104.3300   116.1090     6.8260 O             1 RES     
   15599 Si         146.1970   108.4660     8.6420 Si            1 RES     
   15600 O          131.4770   120.9200    10.3250 O             1 RES     
   15601 O          123.6740   113.7090     7.1970 O             1 RES     
   15602 O          125.7850   116.0530    11.2930 O             1 RES     
   15603 Si         125.0720   102.0650    11.2810 Si            1 RES     
   15604 O          106.5130   112.3630    10.0980 O             1 RES     
   15605 O          131.2430   126.1310     6.4910 O             1 RES     
   15606 O          129.5560   143.4330     4.9100 O             1 RES     
   15607 O          105.5290   129.6980     4.5780 O             1 RES     
   15608 Si         112.1290   129.9390     9.9840 Si            1 RES     
   15609 Si         142.9810   142.5610    10.5600 Si            1 RES     
   15610 O          100.0220   114.5270     4.1100 O             1 RES     
   15611 O          127.5270   106.1070     3.8020 O             1 RES     
   15612 OS         112.7250   103.7090    12.4850 OS            1 RES     
   15613 Si         109.4180   102.8310    10.8570 Si            1 RES     
   15614 O          131.6600   136.1520    10.5500 O             1 RES     
   15615 Si         118.5290   131.0570     7.4200 Si            1 RES     
   15616 OS         122.9530   145.1110    10.9490 OS            1 RES     
   15617 O          147.5310   128.1790     7.5710 O             1 RES     
   15618 O          122.0970   102.9560     3.5790 O             1 RES     
   15619 O          123.9750   147.1680     6.4300 O             1 RES     
   15620 Si         135.6350   107.7970     5.0950 Si            1 RES     
   15621 Si         115.2560   125.1420    10.4270 Si            1 RES     
   15622 O          118.6580   135.0890    10.6360 O             1 RES     
   15623 OS         120.2660   137.5690    13.8000 OS            1 RES     
   15624 O          129.7200   118.0810    12.3670 O             1 RES     
   15625 O          126.0000   119.8770     4.2940 O             1 RES     
   15626 O          141.0400   102.2550     8.1180 O             1 RES     
   15627 Si         126.5050   109.2230     5.5330 Si            1 RES     
   15628 O          136.9120   140.4130    10.7990 O             1 RES     
   15629 O          120.7340   115.2520     4.9050 O             1 RES     
   15630 O          119.4960   118.3400    10.8120 O             1 RES     
   15631 O          122.9330   102.9620     7.0930 O             1 RES     
   15632 OS         146.3160   148.9330    13.3120 OS            1 RES     
   15633 O          125.5590   123.5770     6.4960 O             1 RES     
   15634 O          134.9440   148.6380    11.0810 O             1 RES     
   15635 Si         125.5740   119.7440    11.9030 Si            1 RES     
   15636 O          100.6750   130.5180    10.5840 O             1 RES     
   15637 Si         119.9420   106.1710     7.7720 Si            1 RES     
   15638 Si         123.1990   112.0790     3.8050 Si            1 RES     
   15639 O          130.8380   105.4450     5.9680 O             1 RES     
   15640 O          145.9100   107.5290     7.3860 O             1 RES     
   15641 Si         103.6840   112.8230    12.3480 Si            1 RES     
   15642 OS         118.8100   144.6700    12.2700 OS            1 RES     
   15643 Si         138.0060   111.3040     9.0220 Si            1 RES     
   15644 O          120.9740   136.1480     4.3800 O             1 RES     
   15645 O          133.5230   145.4890     2.9160 O             1 RES     
   15646 O          123.1790   131.3580     2.5010 O             1 RES     
   15647 Si         109.2410   145.5480     3.3790 Si            1 RES     
   15648 Si         134.3650   105.5360    12.3320 Si            1 RES     
   15649 Si         139.6160   125.8090     3.1450 Si            1 RES     
   15650 O          128.8550   116.9830     8.2740 O             1 RES     
   15651 Si         110.8730   125.4460     9.4090 Si            1 RES     
   15652 OS         102.9380   127.3670    13.5110 OS            1 RES     
   15653 OS         133.3940   145.2420    13.7960 OS            1 RES     
   15654 Si         145.8650   131.8970     2.7980 Si            1 RES     
   15655 O          143.3990   105.4610    10.9030 O             1 RES     
   15656 O          145.3100   132.5620     6.9560 O             1 RES     
   15657 O          121.8170   145.9040     5.1190 O             1 RES     
   15658 O          142.0710   147.7170     9.4400 O             1 RES     
   15659 Si         135.4420   132.0520     7.3890 Si            1 RES     
   15660 O          145.1310   114.1860     9.3770 O             1 RES     
   15661 O          113.7230   101.3210    12.2550 O             1 RES     
   15662 O          128.4180   112.2310     8.3410 O             1 RES     
   15663 O          148.1150   103.6560     3.2300 O             1 RES     
   15664 O          124.3630   121.2010     2.9820 O             1 RES     
   15665 Si         100.4750   139.2730     4.6870 Si            1 RES     
   15666 Si         149.8290   117.2240    12.6160 Si            1 RES     
   15667 O          111.8830   142.9360     5.5030 O             1 RES     
   15668 O          148.1000   118.5900     5.2710 O             1 RES     
   15669 Si         113.5760   145.1310     8.3190 Si            1 RES     
   15670 O          107.9420   129.6150     8.5510 O             1 RES     
   15671 O          119.4490   116.2870     9.2650 O             1 RES     
   15672 O          121.8720   133.0660     6.7000 O             1 RES     
   15673 Si         128.1680   132.5160     7.8900 Si            1 RES     
   15674 O          109.3260   114.7530     6.8240 O             1 RES     
   15675 Si         133.4080   123.7200     8.8770 Si            1 RES     
   15676 O          122.0920   120.6210     7.5910 O             1 RES     
   15677 O          103.4620   106.4040    10.5250 O             1 RES     
   15678 Si         137.3120   124.5400    11.4470 Si            1 RES     
   15679 O          126.2140   125.8960    11.8030 O             1 RES     
   15680 Si         139.0690   117.2800     3.3630 Si            1 RES     
   15681 O          138.6180   134.2620     4.5350 O             1 RES     
   15682 Si         137.6040   134.2130     3.3530 Si            1 RES     
   15683 O          100.7970   142.5890     7.7990 O             1 RES     
   15684 O          122.2110   113.2820     3.8790 O             1 RES     
   15685 O          103.3010   142.0190     7.2270 O             1 RES     
   15686 O          142.6960   140.5310     3.8590 O             1 RES     
   15687 Si         117.0000   105.1450     8.0970 Si            1 RES     
   15688 O          147.1890   125.8760     6.4000 O             1 RES     
   15689 O          142.6210   118.3830    10.7470 O             1 RES     
   15690 O          108.0760   115.1190     4.6190 O             1 RES     
   15691 Si         145.0950   138.4250    10.3500 Si            1 RES     
   15692 O          145.8150   100.0320     1.4580 O             1 RES     
   15693 Si         112.9980   131.8610     7.7030 Si            1 RES     
   15694 O          118.4430   118.7220     8.4660 O             1 RES     
   15695 O          124.4370   116.7460     6.5860 O             1 RES     
   15696 Si         114.9540   112.9100     6.0530 Si            1 RES     
   15697 O          114.9650   118.7910     9.9840 O             1 RES     
   15698 Si         124.7280   126.1950    11.4530 Si            1 RES     
   15699 O          147.3630   132.9210     8.3330 O             1 RES     
   15700 O          132.0960   116.7640    11.4900 O             1 RES     
   15701 O          134.8860   147.1780    12.9650 O             1 RES     
   15702 O          112.7500   115.3170     3.5650 O             1 RES     
   15703 O          135.1600   141.7720     5.1760 O             1 RES     
   15704 O          146.3020   143.3040     9.1230 O             1 RES     
   15705 O          121.4630   114.5980     8.6160 O             1 RES     
   15706 O          138.8250   147.9060     3.5560 O             1 RES     
   15707 O          133.4650   101.9990     3.7860 O             1 RES     
   15708 O          127.3030   114.6550     8.4230 O             1 RES     
   15709 O          124.3010   127.5890    11.8080 O             1 RES     
   15710 O          118.4060   147.3430    11.6440 O             1 RES     
   15711 O          106.4100   119.6400     5.3440 O             1 RES     
   15712 OS         119.7470   128.5850    12.9640 OS            1 RES     
   15713 Si         148.5780   119.7920     6.0330 Si            1 RES     
   15714 Si         113.2120   106.2720     4.4060 Si            1 RES     
   15715 Si         138.8670   143.7710     3.9090 Si            1 RES     
   15716 O          116.1730   135.9180     6.1790 O             1 RES     
   15717 Si         146.9800   102.9410     3.9820 Si            1 RES     
   15718 O          116.4210   148.9450     5.2640 O             1 RES     
   15719 O          149.7980   138.4060    12.4830 O             1 RES     
   15720 Si         128.4320   100.9860     9.0180 Si            1 RES     
   15721 O          103.7910   119.2340    12.2220 O             1 RES     
   15722 Si         137.3810   114.3720     9.2660 Si            1 RES     
   15723 O          139.6090   117.1140     4.7570 O             1 RES     
   15724 O          118.9850   123.2030     4.9360 O             1 RES     
   15725 O          133.3830   129.5890     8.6530 O             1 RES     
   15726 Si         106.5040   134.3540     3.6440 Si            1 RES     
   15727 OS         110.6390   141.7210    12.3230 OS            1 RES     
   15728 Si         121.8010   123.4750    10.1490 Si            1 RES     
   15729 O          132.1880   102.9370    11.0530 O             1 RES     
   15730 O          148.2850   137.1040     8.2830 O             1 RES     
   15731 OS         141.0400   102.3510    12.7430 OS            1 RES     
   15732 Si         123.6110   142.4730     6.8000 Si            1 RES     
   15733 Si         139.1900   124.7630     8.9630 Si            1 RES     
   15734 OS         123.5860   147.4960    12.0860 OS            1 RES     
   15735 OS         135.6550   144.6830    12.9390 OS            1 RES     
   15736 O          138.8090   110.5150     5.0240 O             1 RES     
   15737 Si         107.5450   117.4300    12.2700 Si            1 RES     
   15738 O          111.9280   110.0130     4.3980 O             1 RES     
   15739 O          147.4460   112.9720    12.0550 O             1 RES     
   15740 O          116.4350   101.3450     6.4240 O             1 RES     
   15741 Si         110.3130   111.8920    10.4020 Si            1 RES     
   15742 OS         111.2070   132.3640    13.4470 OS            1 RES     
   15743 O          123.7810   146.8420     3.9060 O             1 RES     
   15744 OS         132.3080   140.5490    13.5250 OS            1 RES     
   15745 Si         114.6130   139.8490    10.8620 Si            1 RES     
   15746 Si         109.0190   104.2510     4.0900 Si            1 RES     
   15747 O          125.1120   114.6520     5.4390 O             1 RES     
   15748 Si         144.0140   136.7140     7.7550 Si            1 RES     
   15749 OS         148.1550   110.7840    12.7930 OS            1 RES     
   15750 OS         114.5800   110.1050    13.9600 OS            1 RES     
   15751 OS         130.2540   115.4520    12.2440 OS            1 RES     
   15752 O          115.1430   139.4530     9.4470 O             1 RES     
   15753 Si         126.1430   103.1790     5.5820 Si            1 RES     
   15754 O          100.4530   103.1480     6.2690 O             1 RES     
   15755 O          146.8350   149.3910    10.9860 O             1 RES     
   15756 O          104.0590   136.5990     8.4880 O             1 RES     
   15757 Si         121.9700   114.8470     4.0010 Si            1 RES     
   15758 Si         105.4830   121.8870    10.9520 Si            1 RES     
   15759 O          112.9610   116.0130    12.0790 O             1 RES     
   15760 Si         118.5110   145.7810    11.1700 Si            1 RES     
   15761 OS         126.1120   106.5300    13.1560 OS            1 RES     
   15762 O          128.9550   111.6580     3.8450 O             1 RES     
   15763 O          116.8570   104.4800     9.5660 O             1 RES     
   15764 O          112.2070   131.3180     6.4880 O             1 RES     
   15765 Si         103.6610   147.9890     3.2660 Si            1 RES     
   15766 O          102.3810   138.3960     9.2630 O             1 RES     
   15767 O          116.4770   143.0330     5.4360 O             1 RES     
   15768 O          108.4010   137.8400     9.9930 O             1 RES     
   15769 Si         135.2360   126.0960     9.8200 Si            1 RES     
   15770 OS         141.6370   148.2940    12.0470 OS            1 RES     
   15771 O          128.3920   145.5220     9.3080 O             1 RES     
   15772 Si         108.7650   109.9060     8.6400 Si            1 RES     
   15773 Si         131.1860   140.2060     4.6190 Si            1 RES     
   15774 O          133.9620   109.7730    11.3540 O             1 RES     
   15775 Si         129.9290   138.9810    11.4220 Si            1 RES     
   15776 O          146.4470   145.4640     8.5700 O             1 RES     
   15777 O          103.8460   149.6770    12.4230 O             1 RES     
   15778 O          111.9350   126.3070    10.1220 O             1 RES     
   15779 O          134.7310   137.0780     7.2970 O             1 RES     
   15780 O          109.9940   132.7270     3.7510 O             1 RES     
   15781 OS         145.7050   112.9940    13.9360 OS            1 RES     
   15782 Si         118.4620   119.7870     7.3990 Si            1 RES     
   15783 O          111.2240   135.5340     6.4810 O             1 RES     
   15784 O          143.9110   110.6470     6.2750 O             1 RES     
   15785 O          145.5200   136.9650     7.4450 O             1 RES     
   15786 O          142.3600   147.1630     6.9220 O             1 RES     
   15787 OS         121.7830   113.9840    12.3470 OS            1 RES     
   15788 Si         138.2540   143.6100     8.9210 Si            1 RES     
   15789 O          103.3950   111.3600    11.7150 O             1 RES     
   15790 Si         106.1610   104.5190     2.9570 Si            1 RES     
   15791 Si         135.9990   104.7990     5.4630 Si            1 RES     
   15792 O          140.4460   108.8940    11.2490 O             1 RES     
   15793 Si         136.3780   108.7640     9.1110 Si            1 RES     
   15794 Si         101.8180   127.6390    12.3530 Si            1 RES     
   15795 OS         147.8010   137.1470    12.8070 OS            1 RES     
   15796 OS         111.1920   145.1340    13.1630 OS            1 RES     
   15797 O          148.1120   147.4380    10.4120 O             1 RES     
   15798 O          139.5130   120.8610     8.2070 O             1 RES     
   15799 OS         107.0610   103.7190    13.2660 OS            1 RES     
   15800 O          126.4280   134.1630    11.4740 O             1 RES     
   15801 Si         133.3770   103.5300     3.4640 Si            1 RES     
   15802 O          136.1180   148.2970     8.6890 O             1 RES     
   15803 O          146.7490   117.9500     3.0500 O             1 RES     
   15804 O          141.6860   142.9810     6.6740 O             1 RES     
   15805 O          137.4760   112.5040     5.3120 O             1 RES     
   15806 Si         124.7900   113.2300     6.2040 Si            1 RES     
   15807 OS         138.1530   104.6200    13.3710 OS            1 RES     
   15808 O          109.6770   132.6350    11.3050 O             1 RES     
   15809 Si         133.9690   122.8690     3.4780 Si            1 RES     
   15810 O          143.9820   137.9620     9.3120 O             1 RES     
   15811 Si         112.2740   134.9140     7.4100 Si            1 RES     
   15812 O          125.0010   118.4920    11.1670 O             1 RES     
   15813 O          102.7600   124.2130    10.4020 O             1 RES     
   15814 O          142.9580   126.1660    11.8200 O             1 RES     
   15815 O          145.1440   114.4450    11.7480 O             1 RES     
   15816 Si         140.0110   139.8830     8.6920 Si            1 RES     
   15817 OS         104.8870   130.6080    12.7110 OS            1 RES     
   15818 O          136.7400   129.8300     5.2550 O             1 RES     
   15819 Si         116.6150   144.7830     8.8650 Si            1 RES     
   15820 O          114.1100   111.8590     9.6930 O             1 RES     
   15821 O          102.0850   144.1560     6.4310 O             1 RES     
   15822 OS         139.2760   149.2800    12.1610 OS            1 RES     
   15823 Si         139.0470   145.4520    11.2560 Si            1 RES     
   15824 Si         146.1120   142.6170    10.5030 Si            1 RES     
   15825 Si         115.9470   102.3680     7.5480 Si            1 RES     
   15826 O          109.2800   123.5000     7.5290 O             1 RES     
   15827 OS         140.7000   134.4120    12.2590 OS            1 RES     
   15828 OS         137.3970   149.2820    10.3440 OS            1 RES     
   15829 O          127.2990   109.9210     4.3170 O             1 RES     
   15830 O          147.5000   117.2100     9.6140 O             1 RES     
   15831 O          110.7770   140.0520     8.7900 O             1 RES     
   15832 Si         124.9320   124.8970     5.9010 Si            1 RES     
   15833 Si         146.2280   136.8130    12.7060 Si            1 RES     
   15834 OS         117.5710   107.1020    13.6460 OS            1 RES     
   15835 O          103.9580   131.7320     3.9260 O             1 RES     
   15836 O          130.0340   148.1820     5.4990 O             1 RES     
   15837 Si         102.3960   100.3410    12.1610 Si            1 RES     
   15838 Si         101.3740   124.8670    10.7920 Si            1 RES     
   15839 O          132.8560   114.0160     5.4360 O             1 RES     
   15840 O          105.0360   132.8140    11.2680 O             1 RES     
   15841 O          104.3950   101.0660     5.6080 O             1 RES     
   15842 Si         111.4700   114.6680     9.6650 Si            1 RES     
   15843 O          145.4260   112.4360     7.7160 O             1 RES     
   15844 Si         139.5160   133.9090    11.3150 Si            1 RES     
   15845 O          142.7260   145.9040    11.9400 O             1 RES     
   15846 OS         121.7830   105.7500    13.3060 OS            1 RES     
   15847 O          103.4140   140.7410     9.3500 O             1 RES     
   15848 O          134.3490   132.3610     3.7950 O             1 RES     
   15849 OS         104.0670   145.7170    13.0380 OS            1 RES     
   15850 O          116.5320   125.6030    11.2150 O             1 RES     
   15851 O          108.3430   140.2150     9.8420 O             1 RES     
   15852 O          104.0360   125.3720     8.7120 O             1 RES     
   15853 O          130.6800   145.8030     9.3590 O             1 RES     
   15854 O          110.0900   110.7120     6.1550 O             1 RES     
   15855 O          119.1940   117.1920     5.2050 O             1 RES     
   15856 O          137.1160   148.2080    12.3700 O             1 RES     
   15857 Si         111.3670   116.3290    12.1810 Si            1 RES     
   15858 O          135.5170   149.9290     1.5800 O             1 RES     
   15859 O          103.1960   113.4610     3.7560 O             1 RES     
   15860 O          104.0060   130.3250     6.5690 O             1 RES     
   15861 Si         139.5480   134.3190     5.9030 Si            1 RES     
   15862 Si         119.5940   118.6870     4.7920 Si            1 RES     
   15863 OS         115.5400   111.8900    12.5810 OS            1 RES     
   15864 Si         103.2760   122.0430     6.8940 Si            1 RES     
   15865 O          104.7160   144.8320     2.2930 O             1 RES     
   15866 Si         116.4430   103.1290    10.4140 Si            1 RES     
   15867 O          134.7450   120.4650     6.8190 O             1 RES     
   15868 O          142.7410   149.4860     7.9210 O             1 RES     
   15869 O          109.6600   125.8890     8.2980 O             1 RES     
   15870 Si         114.1900   140.4600     5.9330 Si            1 RES     
   15871 O          102.1890   107.9920     5.7940 O             1 RES     
   15872 O          116.4940   121.9160    12.0070 O             1 RES     
   15873 O          108.7360   123.7110    12.1360 O             1 RES     
   15874 O          109.6740   103.0890     7.3500 O             1 RES     
   15875 Si         145.4850   102.3080     9.1260 Si            1 RES     
   15876 O          134.5530   101.7420     7.1130 O             1 RES     
   15877 Si         147.6950   146.8240     4.1620 Si            1 RES     
   15878 O          109.0940   131.8780     9.0570 O             1 RES     
   15879 O          132.8540   111.6640    10.2560 O             1 RES     
   15880 O          139.9370   112.6720     5.1830 O             1 RES     
   15881 O          142.7870   107.5880     3.9020 O             1 RES     
   15882 OS         141.5110   144.6970    13.8950 OS            1 RES     
   15883 Si         103.5110   126.4870     7.6910 Si            1 RES     
   15884 O          124.8100   140.6180     2.1530 O             1 RES     
   15885 Si         145.3360   148.4560     5.2530 Si            1 RES     
   15886 O          115.0890   116.2570    10.7830 O             1 RES     
   15887 O          101.7470   125.2300     4.6450 O             1 RES     
   15888 O          120.2430   149.6870    11.9420 O             1 RES     
   15889 Si         101.9550   142.6290     6.7790 Si            1 RES     
   15890 Si         121.5380   103.5220     7.4470 Si            1 RES     
   15891 O          117.2980   145.0130    10.2930 O             1 RES     
   15892 O          114.1450   139.2150     6.8920 O             1 RES     
   15893 O          110.4990   119.3050     7.6740 O             1 RES     
   15894 Si         114.9070   107.2060     6.9330 Si            1 RES     
   15895 Si         128.6810   125.7310     9.3460 Si            1 RES     
   15896 O          135.3300   130.3750     2.9760 O             1 RES     
   15897 Si         108.6830   143.2050     7.6990 Si            1 RES     
   15898 O          114.0870   129.7210     3.3030 O             1 RES     
   15899 O          133.0820   122.8120    10.2330 O             1 RES     
   15900 O          147.5190   136.2220     3.8790 O             1 RES     
   15901 Si         128.5250   106.5820    10.1990 Si            1 RES     
   15902 OS         110.7470   136.0950    11.4710 OS            1 RES     
   15903 Si         147.4500   117.4220     4.3660 Si            1 RES     
   15904 O          128.1610   115.8470     6.3670 O             1 RES     
   15905 OS         101.1650   122.8170    14.2730 OS            1 RES     
   15906 O          144.8110   100.9100     8.5730 O             1 RES     
   15907 O          118.5750   127.3960     6.6910 O             1 RES     
   15908 O          126.1090   103.3020     3.9990 O             1 RES     
   15909 Si         142.6060   134.7230     9.4340 Si            1 RES     
   15910 Si         145.3720   110.9610     7.0310 Si            1 RES     
   15911 O          122.5860   129.5690     3.9380 O             1 RES     
   15912 O          146.9910   108.4630    12.3190 O             1 RES     
   15913 Si         140.2970   131.3540     6.4800 Si            1 RES     
   15914 Si         106.0960   133.9830    10.8440 Si            1 RES     
   15915 O          112.7440   130.9830     8.8940 O             1 RES     
   15916 OS         146.1210   101.2430    12.8700 OS            1 RES     
   15917 O          126.2930   130.5420     3.2220 O             1 RES     
   15918 O          107.8820   124.5560     9.3200 O             1 RES     
   15919 O          127.0360   122.2950     8.3600 O             1 RES     
   15920 O          125.2950   100.7040    10.3780 O             1 RES     
   15921 Si         124.9280   117.5040     7.8380 Si            1 RES     
   15922 O          148.6180   104.1440    10.7340 O             1 RES     
   15923 O          125.6520   128.5460     7.8160 O             1 RES     
   15924 O          119.8470   124.9840     6.4890 O             1 RES     
   15925 Si         141.6370   112.8030    10.9200 Si            1 RES     
   15926 Si         135.3520   101.3890    12.1150 Si            1 RES     
   15927 Si         146.8970   137.7350     7.7620 Si            1 RES     
   15928 O          126.2440   107.4510     2.2640 O             1 RES     
   15929 O          105.3780   135.8640     6.8210 O             1 RES     
   15930 O          145.1740   127.8150     2.8680 O             1 RES     
   15931 Si         143.8770   127.3760    11.5510 Si            1 RES     
   15932 Si         112.5270   108.5340     8.2720 Si            1 RES     
   15933 O          103.5620   128.0480     7.7900 O             1 RES     
   15934 O          105.2150   122.8920     2.7460 O             1 RES     
   15935 O          146.5290   122.0670     9.2400 O             1 RES     
   15936 Si         113.1480   115.3560     5.0550 Si            1 RES     
   15937 O          124.9450   129.7810    11.9010 O             1 RES     
   15938 O          100.0590   117.7840     9.3110 O             1 RES     
   15939 O          119.1170   113.8090     9.2550 O             1 RES     
   15940 O          104.0670   137.3420     4.9070 O             1 RES     
   15941 O          136.9140   110.2500     9.4460 O             1 RES     
   15942 O          135.5640   106.3480     5.5660 O             1 RES     
   15943 OS         129.1860   138.1350    12.6570 OS            1 RES     
   15944 Si         131.8730   137.3300     3.6020 Si            1 RES     
   15945 O          142.7740   103.8650     8.6890 O             1 RES     
   15946 O          149.9610   133.5230     2.2830 O             1 RES     
   15947 O          136.2550   126.7060     8.7730 O             1 RES     
   15948 Si         114.0130   115.1700    11.1740 Si            1 RES     
   15949 OS         103.7870   116.7630    12.8830 OS            1 RES     
   15950 Si         148.5450   105.0490    12.0960 Si            1 RES     
   15951 O          140.6880   122.2130     4.0540 O             1 RES     
   15952 O          114.5790   132.1970     7.4600 O             1 RES     
   15953 O          140.8770   138.5600     8.8240 O             1 RES     
   15954 O          124.8340   143.0310     2.6420 O             1 RES     
   15955 Si         130.0510   119.2360     5.0320 Si            1 RES     
   15956 O          132.2550   108.4950     2.8570 O             1 RES     
   15957 Si         106.2410   143.4290     9.5200 Si            1 RES     
   15958 Si         126.1320   127.2990     4.2450 Si            1 RES     
   15959 O          139.7030   143.2250     8.3650 O             1 RES     
   15960 O          108.5980   146.3720     2.2240 O             1 RES     
   15961 Si         134.6490   103.1510     7.7220 Si            1 RES     
   15962 O          115.1550   111.3100     5.9300 O             1 RES     
   15963 Si         105.3720   110.0700     4.4590 Si            1 RES     
   15964 O          142.3490   107.4910    12.1660 O             1 RES     
   15965 OS         115.4210   140.4660    12.0290 OS            1 RES     
   15966 O          105.0060   104.4480     4.0530 O             1 RES     
   15967 O          119.4280   145.2850     5.8050 O             1 RES     
   15968 O          144.4440   146.5930    10.0370 O             1 RES     
   15969 O          149.3310   132.3570     9.5320 O             1 RES     
   15970 O          130.1120   126.0840     8.9200 O             1 RES     
   15971 O          110.4160   101.0990     2.8170 O             1 RES     
   15972 O          105.6430   134.8800     9.6260 O             1 RES     
   15973 O          110.6130   129.6900     9.5080 O             1 RES     
   15974 O          138.9430   130.5190     6.3560 O             1 RES     
   15975 O          110.5100   108.1880     5.4640 O             1 RES     
   15976 O          118.0080   149.7870    12.4920 O             1 RES     
   15977 O          129.9750   118.5390     6.4630 O             1 RES     
   15978 Si         143.5010   106.3350    12.2980 Si            1 RES     
   15979 O          131.0460   133.8030     5.5130 O             1 RES     
   15980 O          108.9270   111.8520    11.1040 O             1 RES     
   15981 O          122.6540   100.6510     6.3860 O             1 RES     
   15982 O          145.1230   132.2190     9.7350 O             1 RES     
   15983 O          115.4250   108.6330     6.4840 O             1 RES     
   15984 O          124.3040   133.2740     3.2250 O             1 RES     
   15985 O          149.8890   113.0660     8.7600 O             1 RES     
   15986 Si         108.1590   111.0630     5.8820 Si            1 RES     
   15987 Si         109.7230   106.6800    12.0750 Si            1 RES     
   15988 Si         128.4790   108.4120     7.7260 Si            1 RES     
   15989 Si         100.5120   107.5370    12.0020 Si            1 RES     
   15990 O          109.6710   105.6550     4.5980 O             1 RES     
   15991 O          147.4550   113.8010     8.3070 O             1 RES     
   15992 O          118.8750   125.6890    11.5620 O             1 RES     
   15993 Si         109.6420   129.2860     3.6580 Si            1 RES     
   15994 O          106.7420   127.7270     7.4510 O             1 RES     
   15995 Si         107.3690   111.2960    10.8940 Si            1 RES     
   15996 Si         130.6730   132.5360     9.5370 Si            1 RES     
   15997 O          112.3410   133.3180     7.6750 O             1 RES     
   15998 Si         105.5320   136.0130     8.4250 Si            1 RES     
   15999 Si         123.0290   143.0570    11.1760 Si            1 RES     
   16000 Si         140.9590   108.1710     7.5530 Si            1 RES     
   16001 OS         119.6480   148.2890    13.7740 OS            1 RES     
   16002 O          134.4150   122.6970     5.0520 O             1 RES     
   16003 O          121.5930   103.0260     9.0560 O             1 RES     
   16004 Si         135.2580   114.0110    11.5060 Si            1 RES     
   16005 O          115.8700   132.0780     9.6110 O             1 RES     
   16006 O          127.1660   118.1990     2.9840 O             1 RES     
   16007 O          102.9420   129.6550     4.5650 O             1 RES     
   16008 Si         141.6730   143.7280     5.2710 Si            1 RES     
   16009 O          139.1920   100.5770     7.9150 O             1 RES     
   16010 O          112.7510   119.8360     9.1320 O             1 RES     
   16011 O          121.9460   142.2760    10.3200 O             1 RES     
   16012 O          114.1980   138.2730     2.9000 O             1 RES     
   16013 OS         122.6260   136.9100    13.1670 OS            1 RES     
   16014 O          129.3360   132.1020     8.8840 O             1 RES     
   16015 O          149.7930   110.4860     8.6050 O             1 RES     
   16016 O          126.2920   112.6820     9.6340 O             1 RES     
   16017 O          109.8200   125.0990    10.5220 O             1 RES     
   16018 Si         127.4390   119.6000     3.5680 Si            1 RES     
   16019 O          106.6230   114.8530     6.6910 O             1 RES     
   16020 O          108.6230   149.0540    10.4420 O             1 RES     
   16021 O          144.8180   126.8060    10.4470 O             1 RES     
   16022 O          111.7380   109.5000     1.6330 O             1 RES     
   16023 O          134.5170   124.8560     9.2050 O             1 RES     
   16024 O          120.2360   109.1000    10.6340 O             1 RES     
   16025 O          132.3420   121.8730    12.6260 O             1 RES     
   16026 Si         125.7150   141.7100     2.8710 Si            1 RES     
   16027 O          134.9960   119.4610     9.2060 O             1 RES     
   16028 Si         141.4990   119.5180    11.1150 Si            1 RES     
   16029 Si         115.2730   110.2900    12.5260 Si            1 RES     
   16030 O          136.2120   118.2560     7.4380 O             1 RES     
   16031 O          129.3970   136.5730     9.2700 O             1 RES     
   16032 O          105.0300   123.2810    10.2570 O             1 RES     
   16033 Si         100.3920   142.2210     4.1890 Si            1 RES     
   16034 O          102.2260   126.4020     2.4270 O             1 RES     
   16035 O          149.4230   118.8260    12.6940 O             1 RES     
   16036 O          127.1160   127.9850     5.1480 O             1 RES     
   16037 Si         108.2650   140.9430     4.4180 Si            1 RES     
   16038 O          141.1300   122.0980     6.6650 O             1 RES     
   16039 O          145.5570   131.9600     4.3400 O             1 RES     
   16040 O          100.1660   119.6860     6.1490 O             1 RES     
   16041 Si         133.2720   108.2920    11.3850 Si            1 RES     
   16042 O          122.7000   100.6170     4.0170 O             1 RES     
   16043 O          113.0960   147.7250     5.9260 O             1 RES     
   16044 Si         122.7790   101.7000     2.8520 Si            1 RES     
   16045 O          116.3630   113.3470     5.6630 O             1 RES     
   16046 O          130.9870   148.2450    10.0420 O             1 RES     
   16047 O          137.2390   149.7590     3.5030 O             1 RES     
   16048 Si         130.8900   116.7310     3.3720 Si            1 RES     
   16049 O          126.4990   144.3450     9.2110 O             1 RES     
   16050 O          149.2220   126.2600     7.9750 O             1 RES     
   16051 OS         103.4010   139.1840    11.4160 OS            1 RES     
   16052 O          133.9070   131.6450     7.3760 O             1 RES     
   16053 O          143.4510   115.8270    10.1300 O             1 RES     
   16054 Si         146.0430   125.0580     5.6030 Si            1 RES     
   16055 O          101.8810   126.1950     7.7000 O             1 RES     
   16056 O          117.3560   102.2180    11.3970 O             1 RES     
   16057 O          107.1550   117.3080     4.0380 O             1 RES     
   16058 Si         142.4350   110.2010     5.9260 Si            1 RES     
   16059 Si         140.6900   103.0210    11.3890 Si            1 RES     
   16060 O          119.3480   100.7980     2.3270 O             1 RES     
   16061 O          119.9280   129.8800    10.9250 O             1 RES     
   16062 O          119.4570   120.9430     7.8900 O             1 RES     
   16063 O          110.7040   113.2600     9.7220 O             1 RES     
   16064 Si         100.4770   101.6020     5.9420 Si            1 RES     
   16065 O          109.4100   101.3120    10.7100 O             1 RES     
   16066 Si         118.7360   117.6360     9.5480 Si            1 RES     
   16067 O          105.7520   147.8330    12.9800 O             1 RES     
   16068 O          119.8340   107.1440     8.9810 O             1 RES     
   16069 Si         118.1230   108.5540     3.6600 Si            1 RES     
   16070 Si         108.9940   133.1040    10.0430 Si            1 RES     
   16071 O          135.6350   137.2760     4.9160 O             1 RES     
   16072 O          143.9320   130.7370     6.0400 O             1 RES     
   16073 Si         110.3410   136.8300     3.1460 Si            1 RES     
   16074 OS         130.0060   134.1070    13.8750 OS            1 RES     
   16075 OS         133.7480   133.1240    13.3250 OS            1 RES     
   16076 Si         107.3310   143.7630     4.9050 Si            1 RES     
   16077 O          112.4480   123.4040     3.5910 O             1 RES     
   16078 Si         111.1820   120.0760     8.8680 Si            1 RES     
   16079 O          132.3270   136.7830     2.1510 O             1 RES     
   16080 Si         126.8970   132.7770    12.0530 Si            1 RES     
   16081 O          131.1770   138.7570     3.8720 O             1 RES     
   16082 O          142.7610   136.9040     6.8720 O             1 RES     
   16083 O          100.1790   145.8030    11.0080 O             1 RES     
   16084 O          114.9690   139.8680     4.7060 O             1 RES     
   16085 O          109.7750   130.5060     2.5650 O             1 RES     
   16086 Si         126.2080   135.7160    11.4330 Si            1 RES     
   16087 O          133.8200   101.8110    12.2470 O             1 RES     
   16088 O          132.2410   124.6310     8.4590 O             1 RES     
   16089 O          144.9250   106.9980    12.2900 O             1 RES     
   16090 Si         110.0470   106.9750     9.0140 Si            1 RES     
   16091 O          104.9290   113.9990     8.3470 O             1 RES     
   16092 Si         123.0970   134.0080     6.9800 Si            1 RES     
   16093 O          135.3680   149.2480     6.6070 O             1 RES     
   16094 O          138.6330   103.1870     8.2330 O             1 RES     
   16095 O          109.6790   138.1050     2.4130 O             1 RES     
   16096 O          124.3640   125.9410     9.8980 O             1 RES     
   16097 Si         101.3860   104.4330     6.3760 Si            1 RES     
   16098 O          136.0720   125.4030    10.9870 O             1 RES     
   16099 Si         133.3970   100.4560     4.1020 Si            1 RES     
   16100 O          147.7770   145.4010     4.5940 O             1 RES     
   16101 O          149.6460   100.9140     7.0600 O             1 RES     
   16102 Si         149.7490   142.7510     8.8430 Si            1 RES     
   16103 O          121.0710   105.0660     7.7670 O             1 RES     
   16104 Si         117.6200   108.2770    12.5210 Si            1 RES     
   16105 O          123.8990   108.0890     8.4830 O             1 RES     
   16106 O          144.9940   106.8110     5.0230 O             1 RES     
   16107 O          138.3840   127.7090     9.6910 O             1 RES     
   16108 Si         102.3000   149.5910     9.1770 Si            1 RES     
   16109 O          111.0760   117.9080    12.0650 O             1 RES     
   16110 Si         102.4870   145.5200     5.7490 Si            1 RES     
   16111 O          105.1070   113.1130     2.0220 O             1 RES     
   16112 O          117.3130   117.3870    10.0950 O             1 RES     
   16113 O          138.8030   118.8680     3.1010 O             1 RES     
   16114 O          106.2230   105.3790     1.6200 O             1 RES     
   16115 O          133.8930   137.3990    11.2720 O             1 RES     
   16116 OS         135.5880   137.9490    13.8270 OS            1 RES     
   16117 O          149.2590   131.1290     2.4940 O             1 RES     
   16118 Si         130.0550   120.4620     9.8690 Si            1 RES     
   16119 O          106.6910   121.9270     4.9560 O             1 RES     
   16120 O          117.7340   121.6430     3.5230 O             1 RES     
   16121 O          119.7000   145.8050    10.1940 O             1 RES     
   16122 O          121.0350   110.2870     8.9720 O             1 RES     
   16123 Si         100.3040   111.6260     9.5100 Si            1 RES     
   16124 Si         147.8920   139.8850     5.9730 Si            1 RES     
   16125 Si         125.8660   144.0270    10.5700 Si            1 RES     
   16126 O          103.1940   100.0020     7.9500 O             1 RES     
   16127 O          133.6470   134.4260     4.8550 O             1 RES     
   16128 Si         130.7270   142.4020     8.4770 Si            1 RES     
   16129 Si         134.7700   137.8690     3.8180 Si            1 RES     
   16130 O          100.9940   110.8450     2.6310 O             1 RES     
   16131 O          129.2810   120.1280    11.1720 O             1 RES     
   16132 O          115.4150   107.7660     1.5950 O             1 RES     
   16133 O          118.3850   135.8390     4.7270 O             1 RES     
   16134 Si         145.2900   125.8680     9.3100 Si            1 RES     
   16135 Si         142.5050   122.3130    10.4510 Si            1 RES     
   16136 Si         115.7320   129.5360     3.7050 Si            1 RES     
   16137 Si         109.6690   147.8430     5.4930 Si            1 RES     
   16138 O          112.3740   148.9220     8.1810 O             1 RES     
   16139 O          124.6360   100.9360     7.9300 O             1 RES     
   16140 O          119.8080   103.0050     3.2320 O             1 RES     
   16141 O          135.4430   100.0010    12.9260 O             1 RES     
   16142 O          106.8130   127.9240     9.9120 O             1 RES     
   16143 O          136.6000   138.8690     6.7020 O             1 RES     
   16144 Si         110.1060   119.0830    11.7060 Si            1 RES     
   16145 O          119.5560   115.3870     7.1320 O             1 RES     
   16146 O          113.4780   147.4240     3.3610 O             1 RES     
   16147 OS         133.1620   111.7520    13.1050 OS            1 RES     
   16148 O          110.6930   126.6800     1.2410 O             1 RES     
   16149 O          122.8730   122.8310    11.1670 O             1 RES     
   16150 O          111.8470   121.1590     4.2940 O             1 RES     
   16151 Si         121.9760   112.3940    12.3550 Si            1 RES     
   16152 O          112.8560   109.6200     9.3420 O             1 RES     
   16153 Si         115.5080   138.7700     3.6850 Si            1 RES     
   16154 O          137.2780   142.6790     9.7680 O             1 RES     
   16155 O          108.5470   110.3990     4.4330 O             1 RES     
   16156 O          104.3780   146.6300     8.9120 O             1 RES     
   16157 O          129.9050   145.6210     6.1860 O             1 RES     
   16158 Si         133.6080   114.0500     6.7690 Si            1 RES     
   16159 O          106.9040   114.7780     2.4800 O             1 RES     
   16160 O          117.7290   146.9900     5.8550 O             1 RES     
   16161 O          113.0630   102.0570     5.8520 O             1 RES     
   16162 O          114.9550   120.6690     8.2220 O             1 RES     
   16163 O          126.1070   141.4050     4.3750 O             1 RES     
   16164 O          126.7350   126.8440     2.9100 O             1 RES     
   16165 O          130.0560   102.9350     5.7890 O             1 RES     
   16166 O          145.2980   121.2120     4.8160 O             1 RES     
   16167 O          109.9770   110.8910     9.1250 O             1 RES     
   16168 Si         115.7720   132.3240    11.1840 Si            1 RES     
   16169 O          125.9570   132.4380     4.9530 O             1 RES     
   16170 O          149.6260   138.0500     4.0950 O             1 RES     
   16171 Si         127.7560   122.5190     3.0090 Si            1 RES     
   16172 O          106.1310   118.0340    12.6980 O             1 RES     
   16173 Si         129.6580   112.5070     4.9570 Si            1 RES     
   16174 Si         120.6900   103.4160     4.4270 Si            1 RES     
   16175 O          118.0140   137.6140     6.4480 O             1 RES     
   16176 Si         107.4400   149.6480     6.7860 Si            1 RES     
   16177 O          111.4600   142.1930     3.2080 O             1 RES     
   16178 O          107.4840   142.2850     4.2520 O             1 RES     
   16179 O          120.4090   141.3470     8.5420 O             1 RES     
   16180 O          127.7690   115.8050     3.7780 O             1 RES     
   16181 O          120.8050   122.5490     6.6200 O             1 RES     
   16182 O          147.1940   109.1690     3.9050 O             1 RES     
   16183 O          143.1990   132.2580    11.8910 O             1 RES     
   16184 OS         102.5250   101.7930    12.7490 OS            1 RES     
   16185 O          115.8720   131.1240     3.5680 O             1 RES     
   16186 O          124.6860   105.7720     8.6550 O             1 RES     
   16187 Si         103.3320   117.0320     2.8190 Si            1 RES     
   16188 O          146.1960   119.5610     9.2260 O             1 RES     
   16189 O          104.2990   111.6510     9.3740 O             1 RES     
   16190 Si         143.9040   120.4480     4.8120 Si            1 RES     
   16191 O          124.8680   135.8760    12.2940 O             1 RES     
   16192 O          123.6580   118.9010     3.6840 O             1 RES     
   16193 Si         114.1220   137.2970    12.4430 Si            1 RES     
   16194 Si         148.3240   103.2150     9.4960 Si            1 RES     
   16195 O          108.7600   145.0380    12.2370 O             1 RES     
   16196 Si         135.3480   134.2110     9.5120 Si            1 RES     
   16197 Si         147.0210   100.0510    12.4420 Si            1 RES     
   16198 O          119.9310   133.8980     5.2210 O             1 RES     
   16199 O          107.6010   134.5360     2.5650 O             1 RES     
   16200 O          115.1770   144.2300     2.7320 O             1 RES     
   16201 O          141.9330   137.9030     4.7360 O             1 RES     
   16202 Si         106.2890   117.4690     9.5750 Si            1 RES     
   16203 OS         125.4360   111.1810    11.7760 OS            1 RES     
   16204 O          110.2860   101.4390     5.2360 O             1 RES     
   16205 O          123.4720   143.8750     7.4750 O             1 RES     
   16206 O          106.0160   144.9060     9.1190 O             1 RES     
   16207 Si         112.5860   109.9290     3.0050 Si            1 RES     
   16208 O          102.3750   115.4810     5.2860 O             1 RES     
   16209 Si         105.0570   113.0090     9.6470 Si            1 RES     
   16210 O          118.5420   105.3050     7.9260 O             1 RES     
   16211 O          148.6410   143.7890     8.4790 O             1 RES     
   16212 O          111.8310   130.9040    11.1600 O             1 RES     
   16213 O          135.0670   113.4710     6.3520 O             1 RES     
   16214 Si         142.0050   138.9920     3.5840 Si            1 RES     
   16215 O          108.0640   140.0100     3.0870 O             1 RES     
   16216 Si         128.7100   137.9400     8.8920 Si            1 RES     
   16217 Si         101.4570   107.3840     7.0950 Si            1 RES     
   16218 O          119.5950   131.6930     6.4870 O             1 RES     
   16219 Si         120.2910   110.6330    10.3250 Si            1 RES     
   16220 O          149.4830   109.5720     4.3120 O             1 RES     
   16221 Si         149.2360   130.9390    10.2300 Si            1 RES     
   16222 O          129.8460   141.2250     8.0550 O             1 RES     
   16223 Si         119.0220   125.9820     7.4110 Si            1 RES     
   16224 O          123.4690   113.3370     9.5400 O             1 RES     
   16225 Si         123.9240   124.9980     8.7160 Si            1 RES     
   16226 OS         133.2710   137.9530    13.2690 OS            1 RES     
   16227 O          122.4530   121.1830    13.0020 O             1 RES     
   16228 O          125.8540   125.8150     5.0220 O             1 RES     
   16229 O          140.4720   131.4740     8.0220 O             1 RES     
   16230 Si         149.0790   109.2880     7.9830 Si            1 RES     
   16231 O          106.2560   106.2770    13.5190 O             1 RES     
   16232 Si         134.2060   140.7980     4.4520 Si            1 RES     
   16233 O          138.6100   137.7160     3.1690 O             1 RES     
   16234 Si         107.0770   120.2490     8.8390 Si            1 RES     
   16235 Si         148.9090   146.5840    11.4290 Si            1 RES     
   16236 O          138.3370   126.5730     2.7100 O             1 RES     
   16237 Si         134.5520   109.9310     7.0270 Si            1 RES     
   16238 Si         120.0360   131.2220    10.1190 Si            1 RES     
   16239 O          102.8930   122.2920     2.5400 O             1 RES     
   16240 Si         127.6670   116.0710     7.8400 Si            1 RES     
   16241 O          128.8060   113.8260     5.0430 O             1 RES     
   16242 Si         124.8180   112.7050    10.9700 Si            1 RES     
   16243 Si         148.9160   133.1910     8.2340 Si            1 RES     
   16244 Si         119.3220   138.0950    12.5930 Si            1 RES     
   16245 Si         101.9380   135.8990    11.6940 Si            1 RES     
   16246 O          145.7460   137.2740    11.2740 O             1 RES     
   16247 OS         109.6630   130.5690    12.2770 OS            1 RES     
   16248 Si         119.9030   114.9890     8.5670 Si            1 RES     
   16249 O          125.7710   104.4830     6.4720 O             1 RES     
   16250 O          145.7780   122.3830    11.6510 O             1 RES     
   16251 O          148.9850   132.2290     4.6010 O             1 RES     
   16252 Si         137.7750   139.8480     6.4840 Si            1 RES     
   16253 O          108.1810   101.0180     6.6000 O             1 RES     
   16254 O          107.9860   109.8280     2.0970 O             1 RES     
   16255 Si         129.5330   133.3360     5.4390 Si            1 RES     
   16256 O          146.2350   123.4670     5.7550 O             1 RES     
   16257 Si         117.2150   128.3100     6.4770 Si            1 RES     
   16258 O          123.2530   107.7300     5.9480 O             1 RES     
   16259 O          120.2230   141.7250     6.0320 O             1 RES     
   16260 Si         114.1060   102.9270    12.3560 Si            1 RES     
   16261 O          119.4250   126.0820     8.9530 O             1 RES     
   16262 Si         107.2080   148.9900     9.7760 Si            1 RES     
   16263 OS         113.0180   137.7460    13.3970 OS            1 RES     
   16264 Si         149.0280   116.6680     9.7360 Si            1 RES     
   16265 O          138.7140   139.7180     7.7470 O             1 RES     
   16266 Si         130.7840   146.8420     5.9520 Si            1 RES     
   16267 O          110.4830   129.8580     4.8470 O             1 RES     
   16268 O          143.3200   141.9460     1.6670 O             1 RES     
   16269 Si         118.2410   112.9120    10.1490 Si            1 RES     
   16270 O          110.7840   143.1810    10.3760 O             1 RES     
   16271 O          142.2450   142.8690     9.2390 O             1 RES     
   16272 Si         128.5000   122.7930     8.3570 Si            1 RES     
   16273 O          104.2370   121.0310    10.8790 O             1 RES     
   16274 O          131.8450   108.4730    11.9550 O             1 RES     
   16275 O          144.0220   122.2570     9.9290 O             1 RES     
   16276 Si         139.1410   149.3650     6.8780 Si            1 RES     
   16277 Si         105.3790   100.2450     4.5480 Si            1 RES     
   16278 O          108.0870   110.3600     7.2540 O             1 RES     
   16279 O          129.9120   143.3700     9.5960 O             1 RES     
   16280 Si         143.3470   117.3420     9.7490 Si            1 RES     
   16281 O          121.2180   138.5560     4.1250 O             1 RES     
   16282 Si         146.2780   118.2610    10.0530 Si            1 RES     
   16283 O          119.3690   139.5920     7.2420 O             1 RES     
   16284 O          147.3990   113.5140     4.6950 O             1 RES     
   16285 Si         129.8150   133.5000    12.2720 Si            1 RES     
   16286 O          129.7090   104.6080     3.9520 O             1 RES     
   16287 O          124.4790   106.5760     3.9720 O             1 RES     
   16288 Si         145.4830   100.4720     2.9760 Si            1 RES     
   16289 O          142.9600   121.7040     4.9030 O             1 RES     
   16290 O          111.2310   119.0010     2.7990 O             1 RES     
   16291 Si         130.8700   108.1510     3.5780 Si            1 RES     
   16292 Si         110.7240   144.5390     9.5680 Si            1 RES     
   16293 O          144.5910   103.2770    10.0920 O             1 RES     
   16294 OS         140.6880   112.9890    12.1640 OS            1 RES     
   16295 O          123.7620   134.0750     5.5450 O             1 RES     
   16296 O          128.5770   119.4320     4.6810 O             1 RES     
   16297 Si         148.8450   132.4750     3.0400 Si            1 RES     
   16298 O          102.2640   128.7650    11.3580 O             1 RES     
   16299 O          108.7090   118.4050    12.0580 O             1 RES     
   16300 Si         136.6600   129.8290     3.7120 Si            1 RES     
   16301 O          124.6190   121.3980     7.7070 O             1 RES     
   16302 Si         139.7760   127.3710    10.4760 Si            1 RES     
   16303 OS         148.4250   130.9370    11.5870 OS            1 RES     
   16304 O          136.1050   103.2680     8.2910 O             1 RES     
   16305 O          112.4430   101.3040     8.2790 O             1 RES     
   16306 Si         133.4360   116.4340    10.8380 Si            1 RES     
   16307 Si         130.7530   104.1730     5.0870 Si            1 RES     
   16308 O          106.1070   138.0600     5.8620 O             1 RES     
   16309 O          138.6680   136.4770     8.9480 O             1 RES     
   16310 Si         111.1630   109.6020     5.7720 Si            1 RES     
   16311 Si         140.3730   114.4940     8.7190 Si            1 RES     
   16312 O          149.6810   132.3530     7.0340 O             1 RES     
   16313 OS         114.2170   122.5440    13.1760 OS            1 RES     
   16314 O          133.6960   115.5260     7.1440 O             1 RES     
   16315 O          134.6540   149.6130     3.8450 O             1 RES     
   16316 O          100.6790   130.3410     5.3820 O             1 RES     
   16317 Si         119.0850   148.6460    12.2470 Si            1 RES     
   16318 Si         122.1510   102.9900    10.5480 Si            1 RES     
   16319 O          134.7300   136.8210     2.4400 O             1 RES     
   16320 O          102.4910   118.3390     2.9200 O             1 RES     
   16321 Si         146.3210   141.5570     3.9180 Si            1 RES     
   16322 O          135.5150   112.7300     1.6720 O             1 RES     
   16323 O          120.6750   135.7400     9.5880 O             1 RES     
   16324 O          144.1660   126.3470     8.2340 O             1 RES     
   16325 Si         100.5010   125.4290     7.9210 Si            1 RES     
   16326 O          125.2210   139.4880     5.9300 O             1 RES     
   16327 OS         146.3090   135.2350    12.6710 OS            1 RES     
   16328 O          119.1550   107.3510     3.9290 O             1 RES     
   16329 O          124.3180   125.4750     7.2570 O             1 RES     
   16330 O          144.5330   142.4470    10.6150 O             1 RES     
   16331 O          132.8890   137.2560     8.9580 O             1 RES     
   16332 OS         101.4300   107.6250    13.2710 OS            1 RES     
   16333 Si         110.0770   118.5520     6.3800 Si            1 RES     
   16334 Si         115.4110   112.2030     8.9330 Si            1 RES     
   16335 Si         123.5250   122.0570    12.3530 Si            1 RES     
   16336 O          132.6580   129.0700    10.7970 O             1 RES     
   16337 O          118.9780   111.5120    10.0640 O             1 RES     
   16338 OS         125.6930   119.3670    13.4870 OS            1 RES     
   16339 O          142.1530   109.8200     4.4030 O             1 RES     
   16340 OS         131.5440   117.1520    13.7880 OS            1 RES     
   16341 O          118.3820   107.7760    11.1990 O             1 RES     
   16342 Si         119.9120   125.9010    10.4390 Si            1 RES     
   16343 Si         121.2670   139.6860     3.0300 Si            1 RES     
   16344 O          110.3610   144.5950     2.8460 O             1 RES     
   16345 O          119.7400   145.9700     3.4200 O             1 RES     
   16346 Si         118.8430   110.6020     5.8770 Si            1 RES     
   16347 O          111.3070   124.0840     8.6510 O             1 RES     
   16348 O          121.1670   101.4560    13.9310 O             1 RES     
   16349 O          108.0970   129.2030     4.1690 O             1 RES     
   16350 O          133.8360   110.8010     2.9710 O             1 RES     
   16351 O          101.1100   120.6060     3.1090 O             1 RES     
   16352 Si         146.7980   120.7630     8.3390 Si            1 RES     
   16353 O          112.9400   138.4750     8.8170 O             1 RES     
   16354 Si         129.6600   144.8580    10.0510 Si            1 RES     
   16355 O          111.2120   115.4640     8.3510 O             1 RES     
   16356 Si         139.6190   102.0610     8.6460 Si            1 RES     
   16357 OS         119.3910   139.6610    12.7410 OS            1 RES     
   16358 O          147.5620   107.4470     5.5700 O             1 RES     
   16359 Si         139.2700   136.7440    10.3940 Si            1 RES     
   16360 O          143.0340   118.0030     8.3440 O             1 RES     
   16361 Si         131.7660   106.8110     9.2550 Si            1 RES     
   16362 O          102.4310   120.7180     6.6690 O             1 RES     
   16363 Si         141.7730   144.6900    12.3280 Si            1 RES     
   16364 O          128.3720   133.8490     7.0030 O             1 RES     
   16365 OS         112.9090   127.3060    12.5350 OS            1 RES     
   16366 Si         104.1990   105.0560    10.8450 Si            1 RES     
   16367 O          139.9540   105.4880     5.1340 O             1 RES     
   16368 Si         102.1290   114.5270     4.0690 Si            1 RES     
   16369 Si         123.8080   108.7590     7.0580 Si            1 RES     
   16370 O          115.0930   100.7780     4.4410 O             1 RES     
   16371 O          134.8950   104.1750     6.5650 O             1 RES     
   16372 OS         134.3920   129.4680    12.5620 OS            1 RES     
   16373 O          103.3300   122.7720     8.3380 O             1 RES     
   16374 O          118.1330   109.5050     2.4330 O             1 RES     
   16375 O          112.2920   144.5360     9.1110 O             1 RES     
   16376 O          106.9350   120.8710     7.3810 O             1 RES     
   16377 Si         108.2440   137.4110     8.3920 Si            1 RES     
   16378 OS         125.8330   115.4440    13.8280 OS            1 RES     
   16379 Si         113.5490   134.3190    11.9030 Si            1 RES     
   16380 Si         119.7110   107.5830    10.4450 Si            1 RES     
   16381 Si         128.6080   115.3720     4.9640 Si            1 RES     
   16382 O          139.9930   104.1720     3.0720 O             1 RES     
   16383 Si         125.0340   132.0940     8.5620 Si            1 RES     
   16384 O          143.6290   133.2150     5.0040 O             1 RES     
   16385 Si         111.3430   141.5240     4.6710 Si            1 RES     
   16386 Si         127.0130   113.1390     8.3330 Si            1 RES     
   16387 Si         148.9600   113.6160     4.9470 Si            1 RES     
   16388 O          126.9220   129.1920     9.9540 O             1 RES     
   16389 Si         106.3490   126.5680     6.4490 Si            1 RES     
   16390 O          126.2180   103.1580    10.9840 O             1 RES     
   16391 O          133.2120   116.3800     9.3320 O             1 RES     
   16392 OS         106.4260   134.7250    12.1420 OS            1 RES     
   16393 O          119.1830   148.4110     2.8480 O             1 RES     
   16394 Si         102.8540   146.5740     8.6460 Si            1 RES     
   16395 O          140.5630   135.5950     5.7950 O             1 RES     
   16396 O          133.2630   110.6490     7.6910 O             1 RES     
   16397 O          144.8170   149.4930     6.4370 O             1 RES     
   16398 O          115.8050   100.2400    11.7960 O             1 RES     
   16399 Si         129.1690   140.2680     6.9740 Si            1 RES     
   16400 O          124.2300   132.0940     9.9360 O             1 RES     
   16401 OS         136.0060   114.0500    12.9430 OS            1 RES     
   16402 Si         104.1400   131.8930    12.2360 Si            1 RES     
   16403 O          113.9600   135.7890    11.8600 O             1 RES     
   16404 O          110.1560   117.0980     6.7790 O             1 RES     
   16405 O          131.4100   138.4720    11.0010 O             1 RES     
   16406 O          116.3110   109.1870    12.1930 O             1 RES     
   16407 O          149.7160   106.1130    11.9960 O             1 RES     
   16408 Si         146.2190   106.7850     6.0930 Si            1 RES     
   16409 OS         149.4500   108.6740    12.1600 OS            1 RES     
   16410 O          100.5590   124.8310     9.4250 O             1 RES     
   16411 O          131.0190   112.8100     4.2520 O             1 RES     
   16412 O          142.5120   113.8110     3.3200 O             1 RES     
   16413 O          144.9820   135.0040     3.9540 O             1 RES     
   16414 Si         147.8900   140.3320     9.3920 Si            1 RES     
   16415 OS         140.7650   119.2600    12.4870 OS            1 RES     
   16416 O          149.3310   134.6780     8.0710 O             1 RES     
   16417 O          103.8620   116.9500     1.4150 O             1 RES     
   16418 O          106.5610   109.2230     3.8240 O             1 RES     
   16419 O          134.6850   112.5290    11.3780 O             1 RES     
   16420 Si         124.1050   139.4900    10.4800 Si            1 RES     
   16421 O          133.2570   100.2650     5.6660 O             1 RES     
   16422 O          122.7900   109.8900     7.1890 O             1 RES     
   16423 O          132.6950   135.6060     6.7950 O             1 RES     
   16424 OS         105.9340   128.2390    12.2320 OS            1 RES     
   16425 O          129.9530   115.9870     4.5410 O             1 RES     
   16426 Si         145.8740   113.8780     8.0790 Si            1 RES     
   16427 O          134.1640   117.8210    10.9570 O             1 RES     
   16428 Si         149.1160   120.2060    11.9690 Si            1 RES     
   16429 O          115.7400   110.8380     8.1330 O             1 RES     
   16430 Si         105.7440   146.3750     9.5310 Si            1 RES     
   16431 O          138.2740   124.3050    10.1730 O             1 RES     
   16432 O          143.1520   101.7600     6.8610 O             1 RES     
   16433 O          124.4440   116.8930     9.2070 O             1 RES     
   16434 Si         147.1230   144.1060     8.0430 Si            1 RES     
   16435 Si         132.3110   113.8020     4.0170 Si            1 RES     
   16436 O          127.0840   100.2090     8.7460 O             1 RES     
   16437 Si         142.5260   124.7440    12.2770 Si            1 RES     
   16438 O          148.5480   109.5350     6.5140 O             1 RES     
   16439 O          132.0830   105.2400     9.5810 O             1 RES     
   16440 Si         130.7770   106.9750     6.3810 Si            1 RES     
   16441 O          132.6560   117.3460     3.5770 O             1 RES     
   16442 Si         122.9830   146.9500     5.2330 Si            1 RES     
   16443 Si         110.7820   122.8880     7.5800 Si            1 RES     
   16444 O          137.9150   135.4680     2.4360 O             1 RES     
   16445 Si         128.5620   110.2560     3.2980 Si            1 RES     
   16446 O          139.5970   108.4610     6.8880 O             1 RES     
   16447 OS         128.0860   127.0470    12.8440 OS            1 RES     
   16448 Si         112.4540   100.0520     9.2110 Si            1 RES     
   16449 O          146.1330   118.2330    11.5320 O             1 RES     
   16450 O          125.1730   109.3400     6.4250 O             1 RES     
   16451 O          133.3330   144.0330    10.0310 O             1 RES     
   16452 O          141.8390   124.0760     5.2260 O             1 RES     
   16453 Si         137.3600   117.2670     7.9960 Si            1 RES     
   16454 Si         128.2610   128.7300     5.8670 Si            1 RES     
   16455 Si         130.2820   108.1480    12.0040 Si            1 RES     
   16456 O          103.8730   102.3210     7.7110 O             1 RES     
   16457 O          114.0220   110.2330    11.5570 O             1 RES     
   16458 Si         122.5800   113.5060     8.3100 Si            1 RES     
   16459 O          149.1180   101.8730     9.3660 O             1 RES     
   16460 Si         148.9490   114.0960     8.0240 Si            1 RES     
   16461 Si         146.8790   103.8960     6.8860 Si            1 RES     
   16462 O          135.4650   132.8620     6.0240 O             1 RES     
   16463 O          127.1510   137.9040     8.7450 O             1 RES     
   16464 Si         117.7620   123.1290     3.9820 Si            1 RES     
   16465 O          126.4320   117.0710     7.9550 O             1 RES     
   16466 OS         123.7870   128.9780    13.9750 OS            1 RES     
   16467 O          114.9030   122.0870     6.1110 O             1 RES     
   16468 O          116.5420   143.3890     8.1150 O             1 RES     
   16469 O          100.9190   122.9880     4.2150 O             1 RES     
   16470 Si         117.7200   113.2740     4.9340 Si            1 RES     
   16471 O          105.1420   142.4580     8.9610 O             1 RES     
   16472 O          134.5830   108.8080     5.8920 O             1 RES     
   16473 O          100.6930   122.6550     1.5560 O             1 RES     
   16474 O          127.9120   144.4110     6.9660 O             1 RES     
   16475 Si         148.7060   112.1020    12.1750 Si            1 RES     
   16476 O          140.0080   104.3710    11.6840 O             1 RES     
   16477 O          118.3840   114.6960     5.1130 O             1 RES     
   16478 O          105.2630   146.3220    11.0400 O             1 RES     
   16479 O          147.8390   121.1070     5.3680 O             1 RES     
   16480 Si         126.3970   115.0080    12.4620 Si            1 RES     
   16481 O          142.3170   126.3140     6.2530 O             1 RES     
   16482 O          125.3350   107.2390    10.7060 O             1 RES     
   16483 Si         131.4810   126.0880     8.1040 Si            1 RES     
   16484 O          149.2420   136.2610     5.9950 O             1 RES     
   16485 O          146.9280   102.4810     9.7930 O             1 RES     
   16486 O          136.5390   130.8970     7.4160 O             1 RES     
   16487 O          132.5680   121.7720     6.0700 O             1 RES     
   16488 O          101.2920   119.6120     8.2810 O             1 RES     
   16489 O          124.1240   112.2340     5.0580 O             1 RES     
   16490 Si         103.8400   103.8590     8.0030 Si            1 RES     
   16491 Si         102.7330   107.5870     9.8720 Si            1 RES     
   16492 O          107.5060   125.9090    11.4880 O             1 RES     
   16493 Si         108.4160   124.7610     7.8710 Si            1 RES     
   16494 OS         101.2370   116.9980    13.2580 OS            1 RES     
   16495 O          114.4070   102.7210     7.7180 O             1 RES     
   16496 O          125.0570   140.4720    11.2770 O             1 RES     
   16497 O          121.3450   131.9200     4.4470 O             1 RES     
   16498 Si         111.9350   139.3810     9.6200 Si            1 RES     
   16499 Si         112.9040   102.3990     7.3500 Si            1 RES     
   16500 O          134.6530   104.1580     4.0910 O             1 RES     
   16501 Si         120.6580   132.5660     5.7020 Si            1 RES     
   16502 O          109.9550   106.7670    10.5320 O             1 RES     
   16503 O          106.3270   149.7210     5.6860 O             1 RES     
   16504 O          128.0230   123.1170     4.3880 O             1 RES     
   16505 Si         113.5940   101.3770     4.4050 Si            1 RES     
   16506 O          126.0460   112.7870     7.0520 O             1 RES     
   16507 Si         108.1330   139.0510    11.0320 Si            1 RES     
   16508 O          129.3400   100.0210     9.9030 O             1 RES     
   16509 OS         120.6290   119.5290    12.8240 OS            1 RES     
   16510 O          146.3110   116.6070     5.0460 O             1 RES     
   16511 O          135.1690   109.0720     8.2150 O             1 RES     
   16512 O          122.7640   136.2150    10.5800 O             1 RES     
   16513 O          121.7240   104.2780    11.3080 O             1 RES     
   16514 O          130.1630   119.2540     8.8420 O             1 RES     
   16515 Si         115.8320   117.6140    10.7090 Si            1 RES     
   16516 O          149.4760   139.6740     5.8810 O             1 RES     
   16517 O          117.5210   113.0590     3.3260 O             1 RES     
   16518 Si         113.2090   143.8680     5.5150 Si            1 RES     
   16519 O          136.7560   128.3420     3.2740 O             1 RES     
   16520 O          100.1930   108.2110     7.5440 O             1 RES     
   16521 O          140.9160   108.9220     9.0310 O             1 RES     
   16522 Si         135.5870   148.5000    12.5270 Si            1 RES     
   16523 OS         132.5230   130.9610    12.8910 OS            1 RES     
   16524 Si         126.3850   130.8540     4.7940 Si            1 RES     
   16525 Si         121.2500   100.8260    12.5180 Si            1 RES     
   16526 O          127.9370   128.7950     7.4510 O             1 RES     
   16527 Si         132.3110   101.7010    11.9900 Si            1 RES     
   16528 O          120.8080   103.1280     6.0350 O             1 RES     
   16529 O          140.3960   119.4270    10.0400 O             1 RES     
   16530 O          108.1620   144.6540     3.9810 O             1 RES     
   16531 O          131.2400   147.1840     7.4300 O             1 RES     
   16532 O          123.7120   102.8520    10.9510 O             1 RES     
   16533 Si         121.9530   149.8670     5.1650 Si            1 RES     
   16534 O          128.4080   132.9060    12.4150 O             1 RES     
   16535 Si         102.6000   139.6720    10.1250 Si            1 RES     
   16536 Si         114.2540   120.1500     9.5970 Si            1 RES     
   16537 Si         133.7110   111.3420    11.5940 Si            1 RES     
   16538 O          102.3200   136.0940    10.2110 O             1 RES     
   16539 Si         133.6340   136.2480     7.9020 Si            1 RES     
   16540 O          110.7800   105.6640    12.5930 O             1 RES     
   16541 O          124.1490   143.2310    10.0890 O             1 RES     
   16542 O          143.1390   128.5830    10.8060 O             1 RES     
   16543 O          147.2410   105.9820    11.9870 O             1 RES     
   16544 Si         113.1380   110.7930    10.3950 Si            1 RES     
   16545 O          117.1380   133.0670    11.5390 O             1 RES     
   16546 Si         126.4910   129.8150    11.3490 Si            1 RES     
   16547 O          118.5480   112.0030     5.4170 O             1 RES     
   16548 O          131.5450   135.9710     4.5650 O             1 RES     
   16549 Si         100.7740   147.0520     3.7350 Si            1 RES     
   16550 O          102.5520   107.5940     3.3250 O             1 RES     
   16551 Si         145.9920   132.1560     8.3110 Si            1 RES     
   16552 O          144.3380   146.0900     7.4270 O             1 RES     
   16553 Si         143.0130   129.5670     5.5960 Si            1 RES     
   16554 Si         143.2570   104.0900    10.1390 Si            1 RES     
   16555 O          106.7530   110.6080    12.1240 O             1 RES     
   16556 Si         127.4220   103.6870    10.1520 Si            1 RES     
   16557 O          120.0630   139.6790     1.9350 O             1 RES     
   16558 O          117.8060   100.4220     4.2120 O             1 RES     
   16559 O          138.2740   106.0910    11.2360 O             1 RES     
   16560 O          104.5930   139.7580     5.1360 O             1 RES     
   16561 Si         128.9100   101.9180     6.1170 Si            1 RES     
   16562 O          111.7560   106.7500     4.0410 O             1 RES     
   16563 Si         124.7800   137.9610     5.9250 Si            1 RES     
   16564 O          109.0370   108.2650     8.6630 O             1 RES     
   16565 O          124.0770   112.4170     2.5300 O             1 RES     
   16566 O          137.7560   132.9340     2.4400 O             1 RES     
   16567 OS         104.5950   149.1400    14.5170 OS            1 RES     
   16568 O          124.6140   121.0140    11.8510 O             1 RES     
   16569 O          122.9150   125.2500     2.6540 O             1 RES     
   16570 O          110.7970   147.4620     6.5500 O             1 RES     
   16571 Si         121.8370   141.1810     9.1520 Si            1 RES     
   16572 O          109.1480   107.9230     3.5290 O             1 RES     
   16573 Si         140.5370   109.9940    10.0790 Si            1 RES     
   16574 O          105.7350   105.3190    11.2190 O             1 RES     
   16575 O          101.9570   138.9090     4.9630 O             1 RES     
   16576 O          139.2870   140.1540    10.0700 O             1 RES     
   16577 O          103.8470   117.0590     4.3490 O             1 RES     
   16578 O          117.8950   141.6230     7.1700 O             1 RES     
   16579 Si         141.1600   132.1080     9.2800 Si            1 RES     
   16580 Si         107.5300   118.7090     4.5500 Si            1 RES     
   16581 O          139.2430   110.7900     9.7430 O             1 RES     
   16582 O          138.8950   114.7690     9.3090 O             1 RES     
   16583 Si         132.5590   137.3940    10.4550 Si            1 RES     
   16584 O          136.1270   146.5280     6.8370 O             1 RES     
   16585 O          135.6710   107.5290     3.6010 O             1 RES     
   16586 Si         141.2410   105.5420     6.0670 Si            1 RES     
   16587 O          144.3530   147.2570     5.2990 O             1 RES     
   16588 O          121.0960   111.5510    11.3260 O             1 RES     
   16589 O          136.3140   147.7270     2.8030 O             1 RES     
   16590 Si         103.2690   107.8770     4.6890 Si            1 RES     
   16591 Si         144.3260   132.8360    10.9620 Si            1 RES     
   16592 O          105.9080   144.4830     4.7470 O             1 RES     
   16593 O          137.8670   148.5510     6.9750 O             1 RES     
   16594 Si         147.7890   129.7170     7.8140 Si            1 RES     
   16595 O          110.5360   145.8010    10.8160 O             1 RES     
   16596 O          130.0420   106.9110     3.1560 O             1 RES     
   16597 O          129.3280   125.3040     5.3200 O             1 RES     
   16598 O          102.6590   104.1220     4.7300 O             1 RES     
   16599 O          103.6920   139.0040     2.9030 O             1 RES     
   16600 O          146.0630   107.6860    10.0550 O             1 RES     
   16601 Si         142.8980   139.7550    11.7930 Si            1 RES     
   16602 Si         144.6300   132.1160     5.5620 Si            1 RES     
   16603 Si         106.6730   128.6420     4.1830 Si            1 RES     
   16604 O          135.2920   112.1580     4.2350 O             1 RES     
   16605 O          123.1660   115.8090     4.5290 O             1 RES     
   16606 OS         136.2370   133.6100    13.1820 OS            1 RES     
   16607 O          107.7920   119.5000     3.2450 O             1 RES     
   16608 Si         139.0220   139.1650     3.7950 Si            1 RES     
   16609 O          138.6900   139.3440     5.2950 O             1 RES     
   16610 Si         120.5840   146.4850     9.0350 Si            1 RES     
   16611 Si         126.1220   106.8770     3.7100 Si            1 RES     
   16612 O          120.6050   127.2480    10.9330 O             1 RES     
   16613 O          142.4750   143.0040     4.0240 O             1 RES     
   16614 O          148.6060   116.6050     3.7510 O             1 RES     
   16615 OS         131.7590   128.7610    13.1040 OS            1 RES     
   16616 O          117.4440   110.2380     6.5740 O             1 RES     
   16617 O          129.8050   109.3610     3.5760 O             1 RES     
   16618 O          124.9300   102.2730     5.9240 O             1 RES     
   16619 O          128.3520   110.3970     1.7180 O             1 RES     
   16620 O          145.0480   149.2860     3.9300 O             1 RES     
   16621 O          148.9510   141.4400     9.0160 O             1 RES     
   16622 Si         123.2200   144.8880     8.7860 Si            1 RES     
   16623 O          146.5110   130.6330     8.0910 O             1 RES     
   16624 Si         102.9310   120.3950    11.4460 Si            1 RES     
   16625 O          137.0440   136.4570     7.0990 O             1 RES     
   16626 OS         123.2340   145.3400    13.3730 OS            1 RES     
   16627 Si         104.5790   117.8720    12.0130 Si            1 RES     
   16628 O          131.9420   131.6430     9.0490 O             1 RES     
   16629 Si         120.8980   121.6300     7.9010 Si            1 RES     
   16630 O          120.6810   124.5750    10.5290 O             1 RES     
   16631 Si         149.8680   139.7510    11.6200 Si            1 RES     
   16632 O          146.8890   141.2540    10.2250 O             1 RES     
   16633 Si         141.9310   129.5470    10.6970 Si            1 RES     
   16634 O          100.9740   105.9620     6.5700 O             1 RES     
   16635 O          115.6560   134.3010     8.0550 O             1 RES     
   16636 O          111.1760   149.7570    10.1540 O             1 RES     
   16637 O          116.9850   120.3870     6.9930 O             1 RES     
   16638 O          121.1540   122.3680     9.2110 O             1 RES     
   16639 Si         107.0370   104.9610    12.2210 Si            1 RES     
   16640 O          109.8820   135.6720     2.0770 O             1 RES     
   16641 O          102.4470   100.3440    10.6000 O             1 RES     
   16642 Si         134.4530   145.6960    12.7250 Si            1 RES     
   16643 O          135.4760   100.9680    10.6270 O             1 RES     
   16644 O          138.3100   116.9160     6.8450 O             1 RES     
   16645 Si         149.5990   110.9130     3.3680 Si            1 RES     
   16646 O          130.3820   140.4390    11.8390 O             1 RES     
   16647 O          102.3780   148.0490     9.1800 O             1 RES     
   16648 O          111.9200   135.5030     8.8340 O             1 RES     
   16649 Si         111.6610   142.2820    11.3350 Si            1 RES     
   16650 O          116.2840   102.2140     9.1100 O             1 RES     
   16651 O          128.8800   123.1380     6.8910 O             1 RES     
   16652 Si         115.1530   108.2330     3.0780 Si            1 RES     
   16653 O          137.6080   116.6840     3.1480 O             1 RES     
   16654 O          116.5280   123.4710     4.8550 O             1 RES     
   16655 O          102.0400   119.3430    10.6480 O             1 RES     
   16656 O          126.6770   132.2300     8.4070 O             1 RES     
   16657 O          134.8490   145.1810     8.5100 O             1 RES     
   16658 O          144.2890   139.3050    11.3820 O             1 RES     
   16659 O          133.8490   120.4930    11.2560 O             1 RES     
   16660 O          122.5550   139.5800     2.1820 O             1 RES     
   16661 O          142.6690   141.1440    11.1220 O             1 RES     
   16662 O          101.5370   126.3480    11.4820 O             1 RES     
   16663 O          131.1460   146.0030     2.2060 O             1 RES     
   16664 O          106.7110   137.0250     8.4600 O             1 RES     
   16665 O          140.4520   126.0420     4.4160 O             1 RES     
   16666 Si         101.4310   129.3570     4.3530 Si            1 RES     
   16667 Si         129.4410   144.1440     6.3630 Si            1 RES     
   16668 Si         134.5620   137.2000    12.6940 Si            1 RES     
   16669 O          115.4150   117.9690     3.7480 O             1 RES     
   16670 O          148.6890   129.9460     9.1440 O             1 RES     
   16671 Si         119.7040   135.1190     4.3010 Si            1 RES     
   16672 Si         109.2350   140.2780     8.5050 Si            1 RES     
   16673 O          110.1700   122.6780     3.4770 O             1 RES     
   16674 O          128.0260   148.4980     3.9550 O             1 RES     
   16675 Si         110.2590   107.0960     4.3300 Si            1 RES     
   16676 Si         110.7680   100.3680     4.1590 Si            1 RES     
   16677 O          107.4330   133.4430    10.3300 O             1 RES     
   16678 O          137.5930   112.8270     9.0240 O             1 RES     
   16679 O          139.2760   149.7930     5.2960 O             1 RES     
   16680 Si         140.4220   122.1860     8.0240 Si            1 RES     
   16681 O          141.5440   130.2860     5.8490 O             1 RES     
   16682 Si         115.1180   123.4980     5.5180 Si            1 RES     
   16683 O          137.2250   144.6220     8.1630 O             1 RES     
   16684 Si         137.4620   129.9450     6.6480 Si            1 RES     
   16685 O          128.2940   102.3970     9.6980 O             1 RES     
   16686 Si         149.9060   116.3460     2.8790 Si            1 RES     
   16687 O          102.1370   121.5170    12.1680 O             1 RES     
   16688 O          143.6060   134.1830    10.4770 O             1 RES     
   16689 Si         140.0440   122.8680     2.7750 Si            1 RES     
   16690 Si         130.3540   149.4740    11.0060 Si            1 RES     
   16691 O          110.4660   128.0500     3.3230 O             1 RES     
   16692 O          143.5030   129.4090     4.0760 O             1 RES     
   16693 O          112.3350   134.3870    10.9070 O             1 RES     
   16694 Si         130.2830   135.4870    10.0540 Si            1 RES     
   16695 O          101.5180   107.7760    10.8100 O             1 RES     
   16696 O          113.9350   148.6380    12.4890 O             1 RES     
   16697 O          111.8470   115.4370     5.8870 O             1 RES     
   16698 Si         136.3330   141.9210    10.7280 Si            1 RES     
   16699 Si         135.4250   149.3560     9.7630 Si            1 RES     
   16700 O          120.1260   110.3950     6.6900 O             1 RES     
   16701 O          142.1540   103.4420    10.9540 O             1 RES     
   16702 OS         148.7590   104.2680    13.4230 OS            1 RES     
   16703 O          134.3070   145.7400    11.1810 O             1 RES     
   16704 Si         128.9580   119.7090    12.6810 Si            1 RES     
   16705 O          113.5450   102.5430     3.3690 O             1 RES     
   16706 Si         110.8420   126.5980     2.8430 Si            1 RES     
   16707 Si         120.2770   123.7320     5.6520 Si            1 RES     
   16708 Si         114.4350   138.4700     8.2500 Si            1 RES     
   16709 O          114.3810   138.4590    11.4540 O             1 RES     
   16710 Si         140.9010   107.9910    12.3730 Si            1 RES     
   16711 Si         104.0140   112.4090     2.8490 Si            1 RES     
   16712 O          146.4900   105.3760     6.6270 O             1 RES     
   16713 O          143.7220   105.6280     2.8890 O             1 RES     
   16714 OS         109.7740   108.0690    12.8280 OS            1 RES     
   16715 O          111.2780   122.8880     6.1010 O             1 RES     
   16716 Si         134.9060   119.1140     7.6960 Si            1 RES     
   16717 O          114.3030   107.0030     3.5270 O             1 RES     
   16718 O          107.6360   104.7540     3.4860 O             1 RES     
   16719 O          101.1770   136.5940     7.9670 O             1 RES     
   16720 Si         141.8900   136.6090     5.6030 Si            1 RES     
   16721 Si         108.3270   124.6850    10.8860 Si            1 RES     
   16722 Si         148.5580   137.0190     4.7550 Si            1 RES     
   16723 O          118.0280   124.1480     2.7820 O             1 RES     
   16724 O          138.2120   140.3700     3.1680 O             1 RES     
   16725 O          113.2290   118.9340     4.1960 O             1 RES     
   16726 O          101.5240   142.1600     5.3490 O             1 RES     
   16727 O          134.2080   141.4020     2.9950 O             1 RES     
   16728 O          109.9340   130.2440     7.3410 O             1 RES     
   16729 O          102.0630   115.5610     2.9380 O             1 RES     
   16730 Si         127.0240   128.3330     8.6310 Si            1 RES     
   16731 OS         138.5380   140.3870    12.5310 OS            1 RES     
   16732 O          135.8430   105.7330    11.5410 O             1 RES     
   16733 O          127.5350   102.5990     5.9240 O             1 RES     
   16734 Si         143.6470   106.3850     4.3100 Si            1 RES     
   16735 O          142.4490   145.0810     5.6010 O             1 RES     
   16736 O          138.6840   134.5900     7.1850 O             1 RES     
   16737 Si         143.7680   126.7680     6.7440 Si            1 RES     
   16738 O          147.2250   126.1170     2.2900 O             1 RES     
   16739 O          104.9090   117.5310    10.4690 O             1 RES     
   16740 O          128.7750   105.2600     1.7050 O             1 RES     
   16741 Si         131.4390   121.9590     5.0050 Si            1 RES     
   16742 Si         121.4930   110.7350     7.5580 Si            1 RES     
   16743 O          113.9710   106.4620     5.8890 O             1 RES     
   16744 O          133.0330   113.1450     8.0570 O             1 RES     
   16745 Si         134.9240   133.4730     4.7240 Si            1 RES     
   16746 O          126.3210   132.7020    13.5690 O             1 RES     
   16747 Si         131.5440   141.4570    12.4750 Si            1 RES     
   16748 O          129.3740   143.0310     2.4190 O             1 RES     
   16749 O          125.4890   113.7300    12.0520 O             1 RES     
   16750 Si         141.1940   125.4280     5.6740 Si            1 RES     
   16751 Si         125.0190   133.6200     4.5810 Si            1 RES     
   16752 O          125.8520   137.3180     4.9610 O             1 RES     
   16753 O          126.2680   122.5560     2.5550 O             1 RES     
   16754 O          133.7020   103.5210     8.8710 O             1 RES     
   16755 Si         149.5320   136.2110     7.5480 Si            1 RES     
   16756 O          107.9020   112.8950     5.8120 O             1 RES     
   16757 Si         132.6620   121.5750    11.0900 Si            1 RES     
   16758 Si         141.8410   137.7970     9.8630 Si            1 RES     
   16759 O          124.8970   138.6820     9.4090 O             1 RES     
   16760 O          119.4320   130.9940     8.6450 O             1 RES     
   16761 O          123.0340   106.4600    10.7360 O             1 RES     
   16762 Si         106.1230   121.0220     6.0700 Si            1 RES     
   16763 O          126.2580   107.8970     4.8800 O             1 RES     
   16764 O          124.7020   127.8820     4.0000 O             1 RES     
   16765 O          106.7870   143.4910    11.0880 O             1 RES     
   16766 O          104.7200   126.2960     6.7230 O             1 RES     
   16767 O          137.7030   128.5370     7.3720 O             1 RES     
   16768 O          134.9560   133.9470    11.0150 O             1 RES     
   16769 O          114.4000   121.2030    10.7780 O             1 RES     
   16770 OS         117.2170   124.9120    13.6390 OS            1 RES     
   16771 O          104.4340   146.6510     3.6400 O             1 RES     
   16772 O          130.7400   141.4030     3.7310 O             1 RES     
   16773 O          104.3840   113.3880    11.0640 O             1 RES     
   16774 O          122.1030   111.6210    13.7130 O             1 RES     
   16775 Si         131.4340   147.1230     9.0250 Si            1 RES     
   16776 O          136.8030   142.6740    12.0850 O             1 RES     
   16777 Si         122.1270   135.1590     9.6950 Si            1 RES     
   16778 Si         104.3300   141.3140     8.1820 Si            1 RES     
   16779 O          140.7490   128.5730    10.2950 O             1 RES     
   16780 O          132.6930   140.5850     4.9870 O             1 RES     
   16781 O          131.9860   103.9110     4.1460 O             1 RES     
   16782 O          145.5510   109.8530     8.1410 O             1 RES     
   16783 Si         130.2600   126.5190     5.2240 Si            1 RES     
   16784 Si         130.8330   116.8930    12.4020 Si            1 RES     
   16785 O          133.2690   103.5440     1.8200 O             1 RES     
   16786 Si         133.1600   128.3150     9.5480 Si            1 RES     
   16787 OS         144.0770   147.9320    12.2840 OS            1 RES     
   16788 O          147.5480   138.0060     5.6180 O             1 RES     
   16789 Si         137.6450   127.2860     8.3550 Si            1 RES     
   16790 O          127.5640   124.5850    13.4620 O             1 RES     
   16791 O          107.1940   124.1080     3.5390 O             1 RES     
   16792 Si         116.4750   100.4530     5.0370 Si            1 RES     
   16793 OS         119.0150   133.9640    12.9490 OS            1 RES     
   16794 Si         113.7360   146.8480     4.7960 Si            1 RES     
   16795 O          145.7160   103.1720     7.7260 O             1 RES     
   16796 O          147.2460   143.8840     6.4930 O             1 RES     
   16797 O          133.8920   107.0090    12.1530 O             1 RES     
   16798 Si         139.0750   105.0900     3.8950 Si            1 RES     
   16799 O          107.5480   121.7370     2.2120 O             1 RES     
   16800 O          138.7150   111.9880     2.8450 O             1 RES     
   16801 O          117.3960   145.5620     7.7220 O             1 RES     
   16802 Si         125.4570   100.0150     8.9280 Si            1 RES     
   16803 O          126.8410   131.3830    11.3970 O             1 RES     
   16804 Si         106.6870   128.7520     8.6050 Si            1 RES     
   16805 O          122.9350   108.4130     3.4420 O             1 RES     
   16806 O          139.6580   123.4910     8.2180 O             1 RES     
   16807 O          140.5220   113.4140     7.5850 O             1 RES     
   16808 O          112.5910   140.7200     5.2870 O             1 RES     
   16809 OS         129.9960   121.1650    13.4540 OS            1 RES     
   16810 Si         141.0860   112.8460     6.2010 Si            1 RES     
   16811 Si         116.5360   142.3980     6.8450 Si            1 RES     
   16812 O          105.2850   129.5070     8.5800 O             1 RES     
   16813 Si         145.8050   126.2980     2.8180 Si            1 RES     
   16814 O          113.0470   146.5060     7.9250 O             1 RES     
   16815 O          100.7180   149.8240     8.9760 O             1 RES     
   16816 Si         111.1980   135.2150    10.2120 Si            1 RES     
   16817 O          116.1250   127.2630     7.1250 O             1 RES     
   16818 O          142.0090   108.9310     6.7160 O             1 RES     
   16819 O          129.4600   107.4260     7.0500 O             1 RES     
   16820 Si         124.4940   116.1220     5.1530 Si            1 RES     
   16821 O          114.2950   124.3120     4.4240 O             1 RES     
   16822 O          129.1570   132.0700     6.3030 O             1 RES     
   16823 O          116.2070   142.0650     2.8460 O             1 RES     
   16824 Si         109.1930   102.1070     6.1930 Si            1 RES     
   16825 O          122.3780   110.9030     3.1270 O             1 RES     
   16826 O          129.5450   127.8690     5.5900 O             1 RES     
   16827 Si         109.7130   135.8030     6.0890 Si            1 RES     
   16828 O          116.2530   139.6080     2.5560 O             1 RES     
   16829 O          136.1380   134.2730     4.0100 O             1 RES     
   16830 O          138.8820   142.7470     2.5550 O             1 RES     
   16831 O          141.4980   104.0980     6.5750 O             1 RES     
   16832 O          144.7810   141.7280     3.7870 O             1 RES     
   16833 Si         121.5530   137.3940     5.0980 Si            1 RES     
   16834 O          115.2540   146.7190     5.0130 O             1 RES     
   16835 Si         148.3050   108.8110     5.0710 Si            1 RES     
   16836 Si         119.3380   136.4260     9.9850 Si            1 RES     
   16837 O          147.7060   108.7760     8.5610 O             1 RES     
   16838 O          116.0610   106.3310     7.6540 O             1 RES     
   16839 O          148.3560   110.4680     2.3570 O             1 RES     
   16840 Si         107.5970   115.8860     3.3550 Si            1 RES     
   16841 Si         133.3320   142.4600    10.1280 Si            1 RES     
   16842 Si         146.0100   136.0040     3.3990 Si            1 RES     
   16843 O          146.9380   140.5590     4.9240 O             1 RES     
   16844 Si         114.4050   118.2450     4.9420 Si            1 RES     
   16845 O          146.1040   111.4080     5.6420 O             1 RES     
   16846 O          127.3830   108.8200     6.7370 O             1 RES     
   16847 O          131.8700   115.0560     3.2500 O             1 RES     
   16848 Si         115.9070   110.0890     6.7220 Si            1 RES     
   16849 O          110.8390   115.5770    10.8400 O             1 RES     
   16850 Si         103.8790   123.8550     9.3030 Si            1 RES     
   16851 O          110.9570   121.5610     8.4690 O             1 RES     
   16852 Si         107.0870   127.4220    11.3940 Si            1 RES     
   16853 O          142.1170   120.9600    11.0440 O             1 RES     
   16854 O          141.2090   106.6220     7.2350 O             1 RES     
   16855 Si         103.2300   116.7320     5.8630 Si            1 RES     
   16856 O          125.0490   141.8660     6.4780 O             1 RES     
   16857 Si         101.2730   144.7730    10.5840 Si            1 RES     
   16858 O          102.6120   146.4420     7.0790 O             1 RES     
   16859 O          113.6390   149.8840    10.2120 O             1 RES     
   16860 O          130.6700   134.1810     9.2810 O             1 RES     
   16861 Si         141.1270   142.6480     8.1450 Si            1 RES     
   16862 O          140.0150   106.7220    12.7820 O             1 RES     
   16863 OS         146.5220   114.8410    13.6800 OS            1 RES     
   16864 O          119.5030   137.4470    11.1780 O             1 RES     
   16865 O          140.1420   118.5980     7.4890 O             1 RES     
   16866 O          106.4810   145.2430    12.8770 O             1 RES     
   16867 O          103.6000   144.9390     4.7370 O             1 RES     
   16868 O          140.1310   132.9500    10.1810 O             1 RES     
   16869 Si         126.6890   116.7210     3.0580 Si            1 RES     
   16870 OS         123.2980   116.4810    11.5780 OS            1 RES     
   16871 O          107.4210   133.3580     4.5400 O             1 RES     
   16872 O          147.3600   132.4420     2.6270 O             1 RES     
   16873 O          138.3920   145.2230     3.4960 O             1 RES     
   16874 O          102.3880   118.0540     6.4230 O             1 RES     
   16875 O          133.4470   113.1420     3.1830 O             1 RES     
   16876 OS         124.0410   123.1650    13.5520 OS            1 RES     
   16877 O          136.7380   134.8560     9.1230 O             1 RES     
   16878 O          143.6660   135.3340     8.4330 O             1 RES     
   16879 O          139.8860   102.2040    10.2160 O             1 RES     
   16880 OS         149.6020   112.7850    13.2680 OS            1 RES     
   16881 O          133.9400   124.2910     2.7330 O             1 RES     
   16882 O          111.1720   118.9820     5.3790 O             1 RES     
   16883 O          114.0480   109.3350     3.0620 O             1 RES     
   16884 O          142.7380   134.8950     2.7400 O             1 RES     
   16885 O          134.2480   135.0790     8.7640 O             1 RES     
   16886 O          114.3800   126.3200    10.8220 O             1 RES     
   16887 Si         105.3480   149.4170    12.7330 Si            1 RES     
   16888 O          141.5300   111.3990     6.3670 O             1 RES     
   16889 O          146.0850   135.4200     1.9540 O             1 RES     
   16890 Si         111.4050   122.6560     4.4670 Si            1 RES     
   16891 Si         105.4440   146.3220    12.6150 Si            1 RES     
   16892 O          147.9650   103.8760     8.0230 O             1 RES     
   16893 O          122.6100   124.2770     9.1200 O             1 RES     
   16894 O          108.7410   103.2920     5.2770 O             1 RES     
   16895 O          143.1120   113.3500    10.8740 O             1 RES     
   16896 O          140.3440   148.4660     7.4730 O             1 RES     
   16897 OS         103.4810   104.3130    11.9250 OS            1 RES     
   16898 OS         115.4450   137.0720    13.3770 OS            1 RES     
   16899 O          130.5520   132.6320    11.0970 O             1 RES     
   16900 O          114.9040   113.0700     7.7000 O             1 RES     
   16901 Si         143.4640   134.5120     4.1050 Si            1 RES     
   16902 O          137.2750   141.3190     6.3480 O             1 RES     
   16903 O          116.5790   108.1120     3.7590 O             1 RES     
   16904 O          144.9030   117.5790     9.8250 O             1 RES     
   16905 O          142.4170   123.6620    11.1840 O             1 RES     
   16906 Si         111.8210   119.6120     4.0960 Si            1 RES     
   16907 O          104.2290   104.2180     9.5200 O             1 RES     
   16908 O          111.9240   103.5670     7.9060 O             1 RES     
   16909 Si         123.2640   128.3340     4.5650 Si            1 RES     
   16910 Si         110.6550   115.6260     6.9070 Si            1 RES     
   16911 Si         116.6240   147.4700     4.8540 Si            1 RES     
   16912 O          142.4230   143.5150    11.6360 O             1 RES     
   16913 O          144.6300   113.0840     4.7050 O             1 RES     
   16914 O          124.8870   123.7760     8.7800 O             1 RES     
   16915 Si         144.1340   114.4970    10.5390 Si            1 RES     
   16916 O          101.7890   111.3740     9.7400 O             1 RES     
   16917 Si         136.3550   148.1240     7.1680 Si            1 RES     
   16918 O          110.2310   149.0210     4.5630 O             1 RES     
   16919 O          128.3610   124.1750     9.0730 O             1 RES     
   16920 O          120.6590   143.6390     4.2780 O             1 RES     
   16921 Si         119.3750   141.1540     7.3020 Si            1 RES     
   16922 O          130.9560   111.5940     8.6360 O             1 RES     
   16923 OS         118.8340   109.1030    13.2000 OS            1 RES     
   16924 OS         118.5960   117.9340    13.0090 OS            1 RES     
   16925 O          146.4730   101.5150     3.5410 O             1 RES     
   16926 O          112.2390   125.8070     3.0760 O             1 RES     
   16927 O          134.3740   121.7230     2.4900 O             1 RES     
   16928 O          107.1170   149.6020     8.2970 O             1 RES     
   16929 O          107.2630   140.2660     5.4760 O             1 RES     
   16930 Si         105.9150   139.6130     6.0160 Si            1 RES     
   16931 Si         109.3260   130.2780     8.7720 Si            1 RES     
   16932 O          121.8550   112.2470     7.6560 O             1 RES     
   16933 Si         132.0220   145.5090     3.4310 Si            1 RES     
   16934 Si         126.3280   136.2830     3.8650 Si            1 RES     
   16935 Si         129.2960   149.2110     4.6370 Si            1 RES     
   16936 Si         109.8470   149.8200    11.0250 Si            1 RES     
   16937 O          123.2350   137.5940     5.5630 O             1 RES     
   16938 O          104.4610   104.4630     6.6550 O             1 RES     
   16939 O          137.6840   104.5540     4.2990 O             1 RES     
   16940 O          108.1540   143.7040     6.2390 O             1 RES     
   16941 O          116.5850   103.8740     7.1990 O             1 RES     
   16942 Si         143.4070   114.0150     4.5790 Si            1 RES     
   16943 O          129.2980   138.8270     7.6790 O             1 RES     
   16944 O          129.3870   121.7350     9.2020 O             1 RES     
   16945 Si         119.1950   149.8120     3.6240 Si            1 RES     
   16946 O          138.6720   138.0910    11.0390 O             1 RES     
   16947 Si         137.7770   135.5230     8.0530 Si            1 RES     
   16948 O          100.8420   123.7000    11.6950 O             1 RES     
   16949 Si         145.3090   146.5390     8.6930 Si            1 RES     
   16950 O          140.1670   132.8790     5.9980 O             1 RES     
   16951 O          149.4920   112.2080     4.3130 O             1 RES     
   16952 Si         143.2470   118.1450     6.8110 Si            1 RES     
   16953 O          101.2610   145.9670     4.7330 O             1 RES     
   16954 O          120.5560   106.5140    11.2540 O             1 RES     
   16955 Si         146.4700   121.9070     5.5860 Si            1 RES     
   16956 O          133.7270   104.7470    11.2180 O             1 RES     
   16957 O          148.7680   139.6940    10.5490 O             1 RES     
   16958 Si         103.4020   101.0840     6.7640 Si            1 RES     
   16959 O          121.3330   101.8710    11.3530 O             1 RES     
   16960 O          135.5060   111.1090     6.4490 O             1 RES     
   16961 O          126.7580   104.1720     8.6430 O             1 RES     
   16962 OS         144.5140   128.1680    12.7980 OS            1 RES     
   16963 O          137.1250   104.6340     6.7400 O             1 RES     
   16964 Si         142.0090   108.7670     3.2600 Si            1 RES     
   16965 Si         146.1000   112.5440     4.5270 Si            1 RES     
   16966 OS         149.5030   140.8540    12.6370 OS            1 RES     
   16967 O          111.7300   111.3630    10.8470 O             1 RES     
   16968 Si         110.5060   103.9990     8.3070 Si            1 RES     
   16969 O          126.4340   142.8610    11.3620 O             1 RES     
   16970 OS         110.2690   120.2770    12.7150 OS            1 RES     
   16971 O          104.0880   106.5780     5.0410 O             1 RES     
   16972 Si         104.7960   145.1350     3.8250 Si            1 RES     
   16973 Si         117.2500   136.7620     5.3500 Si            1 RES     
   16974 O          122.6580   135.0170     8.1920 O             1 RES     
   16975 O          104.7760   111.3850     3.7570 O             1 RES     
   16976 Si         102.1730   130.1660    10.6390 Si            1 RES     
   16977 OS         129.6660   109.5910    12.2180 OS            1 RES     
   16978 O          103.1690   111.5260     1.8630 O             1 RES     
   16979 Si         101.5830   119.4170     6.7290 Si            1 RES     
   16980 Si         104.1910   130.4610     4.9740 Si            1 RES     
   16981 O          118.7420   119.2920     3.6040 O             1 RES     
   16982 OS         129.6860   144.8840    11.6080 OS            1 RES     
   16983 Si         121.1900   142.2330     4.8640 Si            1 RES     
   16984 O          130.7800   120.5740     4.9990 O             1 RES     
   16985 O          119.1700   119.3410     6.1340 O             1 RES     
   16986 Si         121.9210   105.8130    11.6850 Si            1 RES     
   16987 O          130.8090   116.9810     1.4340 O             1 RES     
   16988 O          119.2280   134.6030     2.8800 O             1 RES     
   16989 Si         104.1090   105.0000     5.1770 Si            1 RES     
   16990 O          106.3600   118.8940     8.8740 O             1 RES     
   16991 O          106.2940   100.6990     3.4020 O             1 RES     
   16992 O          115.1280   103.2530    11.2180 O             1 RES     
   16993 Si         124.5940   116.9940    10.8350 Si            1 RES     
   16994 Si         112.2190   147.6710     7.2280 Si            1 RES     
   16995 O          137.6340   143.1750     4.6860 O             1 RES     
   16996 OS         140.8040   109.0420    13.7160 OS            1 RES     
   16997 Si         127.3070   145.2360     8.2250 Si            1 RES     
   16998 O          133.9980   122.9060     7.6760 O             1 RES     
   16999 O          145.1190   137.2770     3.0810 O             1 RES     
   17000 O          106.8140   147.4990     9.5180 O             1 RES     
   17001 O          114.2680   143.1000     4.5660 O             1 RES     
   17002 O          141.9410   138.7310    11.1050 O             1 RES     
   17003 O          105.3760   140.2880     7.4140 O             1 RES     
   17004 O          140.1690   143.8500     4.6990 O             1 RES     
   17005 O          127.7100   140.7150     6.5120 O             1 RES     
   17006 O          140.9140   141.0570     8.2180 O             1 RES     
   17007 O          130.0460   140.2740     5.7160 O             1 RES     
   17008 O          139.6660   127.1110    12.0460 O             1 RES     
   17009 O          117.3190   147.0070     3.5200 O             1 RES     
   17010 Si         132.9580   104.0070    10.1090 Si            1 RES     
   17011 Si         134.8320   134.0840    12.5900 Si            1 RES     
   17012 OS         107.6280   143.2180    13.5850 OS            1 RES     
   17013 Si         147.7210   126.6370     7.6180 Si            1 RES     
   17014 O          130.9160   126.5840     3.7620 O             1 RES     
   17015 O          123.9220   142.3280    12.3240 O             1 RES     
   17016 OS         125.8880   140.5100    13.6960 OS            1 RES     
   17017 O          136.9150   115.8830     8.6820 O             1 RES     
   17018 O          121.1230   147.8380     9.4230 O             1 RES     
   17019 O          144.2260   101.4090     2.5910 O             1 RES     
   17020 O          121.3940   124.2170     4.6260 O             1 RES     
   17021 OS         138.1040   125.3190    12.6240 OS            1 RES     
   17022 Si         132.5640   111.8050     8.6730 Si            1 RES     
   17023 O          133.7820   118.0900     7.4940 O             1 RES     
   17024 OS         109.2800   139.5730    11.9060 OS            1 RES     
   17025 O          101.9720   101.2120     6.1930 O             1 RES     
   17026 O          146.1200   147.9080     8.9550 O             1 RES     
   17027 O          115.0400   145.0910     8.8960 O             1 RES     
   17028 O          140.8230   125.8370     1.9520 O             1 RES     
   17029 O          105.1570   133.7200     3.2020 O             1 RES     
   17030 Si         143.0790   147.3120    11.1950 Si            1 RES     
   17031 O          109.7870   141.1050     4.7360 O             1 RES     
   17032 O          106.1870   110.7460     5.5900 O             1 RES     
   17033 O          134.0590   149.7060     8.3830 O             1 RES     
   17034 O          146.9490   142.9200     4.2110 O             1 RES     
   17035 O          140.5380   139.4770     3.5280 O             1 RES     
   17036 O          125.0980   148.5330     8.5770 O             1 RES     
   17037 Si         133.8420   145.4100     9.7360 Si            1 RES     
   17038 O          101.0700   129.6330     2.7850 O             1 RES     
   17039 O          131.7480   146.3360     4.7500 O             1 RES     
   17040 O          146.7180   143.3970    11.7750 O             1 RES     
   17041 O          145.9950   125.4950     4.1030 O             1 RES     
   17042 Si         124.4620   120.2280     4.2260 Si            1 RES     
   17043 O          101.2180   140.0580    10.7650 O             1 RES     
   17044 O          149.7400   119.9800    10.4620 O             1 RES     
   17045 O          136.5850   107.6310    10.1330 O             1 RES     
   17046 O          132.3760   149.8430     3.1810 O             1 RES     
   17047 OS         129.5430   149.3210    12.4220 OS            1 RES     
   17048 Si         138.2170   148.4220    11.3390 Si            1 RES     
   17049 OS         127.3500   136.5040    12.2680 OS            1 RES     
   17050 O          121.5430   131.5880     9.9880 O             1 RES     
   17051 O          134.2360   127.1980    10.1070 O             1 RES     
   17052 Si         128.9930   105.7800     3.1930 Si            1 RES     
   17053 O          116.7080   112.7920     9.7260 O             1 RES     
   17054 OS         108.3120   128.2320    12.0050 OS            1 RES     
   17055 Si         117.5100   125.8340    12.3960 Si            1 RES     
   17056 O          113.1120   145.4360     5.0930 O             1 RES     
   17057 O          108.6580   138.8890     7.8230 O             1 RES     
   17058 O          125.4570   130.2240     5.8030 O             1 RES     
   17059 OS         115.4610   130.9980    12.0200 OS            1 RES     
   17060 OS         120.9830   117.0100    12.4260 OS            1 RES     
   17061 O          102.5790   123.0990     5.9300 O             1 RES     
   17062 Si         123.6140   120.2550     7.2040 Si            1 RES     
   17063 O          112.8580   128.5260    10.3000 O             1 RES     
   17064 Si         149.4750   131.2930     5.8120 Si            1 RES     
   17065 OS         130.2560   107.0160    13.1400 OS            1 RES     
   17066 O          101.0510   142.4950     2.7780 O             1 RES     
   17067 O          147.2880   139.8280     7.4040 O             1 RES     
   17068 Si         118.5590   146.0310     6.8330 Si            1 RES     
   17069 Si         134.5940   112.1700     2.8700 Si            1 RES     
   17070 Si         122.8780   132.3050    10.6540 Si            1 RES     
   17071 O          140.5280   115.8970     7.9670 O             1 RES     
   17072 O          149.8640   121.4210    12.6100 O             1 RES     
   17073 Si         142.2390   103.0160     7.4680 Si            1 RES     
   17074 OS         103.7080   132.8340    13.4430 OS            1 RES     
   17075 OS         102.5300   134.7780    12.6110 OS            1 RES     
   17076 O          149.6160   116.5430    11.2260 O             1 RES     
   17077 Si         127.6710   125.6370    12.2540 Si            1 RES     
   17078 O          109.4760   125.8230     3.2250 O             1 RES     
   17079 OS         116.1200   118.1080    12.2320 OS            1 RES     
   17080 Si         102.5000   136.8800     8.8330 Si            1 RES     
   17081 O          110.4580   119.5140    10.2270 O             1 RES     
   17082 O          131.5910   100.4320    11.3760 O             1 RES     
   17083 O          106.2520   103.0190     2.5250 O             1 RES     
   17084 O          123.7620   120.4510     5.6460 O             1 RES     
   17085 O          106.4440   128.1370     2.6900 O             1 RES     
   17086 Si         132.9600   116.8100     7.8490 Si            1 RES     
   17087 O          145.8420   112.2230     2.9200 O             1 RES     
   17088 Si         132.2490   134.8590     5.3880 Si            1 RES     
   17089 O          143.5730   119.3770     5.9410 O             1 RES     
   17090 O          141.4800   111.2340    10.4330 O             1 RES     
   17091 O          127.1300   119.9590    11.9050 O             1 RES     
   17092 O          143.1120   109.0960     2.1700 O             1 RES     
   17093 O          115.5340   125.4820     8.9350 O             1 RES     
   17094 O          128.6790   123.3450     2.1370 O             1 RES     
   17095 O          144.5210   117.3100     6.5560 O             1 RES     
   17096 O          113.6740   144.1950     7.0730 O             1 RES     
   17097 OS         114.3730   114.0060    12.1490 OS            1 RES     
   17098 O          115.2320   124.6720     6.5390 O             1 RES     
   17099 O          110.0290   105.5380     8.3100 O             1 RES     
   17100 Si         125.5300   122.6310     7.8570 Si            1 RES     
   17101 O          102.1790   147.9090     3.7720 O             1 RES     
   17102 Si         128.9950   123.7520     5.4270 Si            1 RES     
   17103 Si         103.1650   110.6790    10.1300 Si            1 RES     
   17104 O          116.2890   128.8230     5.1010 O             1 RES     
   17105 O          117.3520   132.1840     7.5460 O             1 RES     
   17106 O          134.8070   139.4040     4.0380 O             1 RES     
   17107 Si         136.5260   142.5080     5.6500 Si            1 RES     
   17108 O          119.9540   106.7290     6.2850 O             1 RES     
   17109 OS         104.6190   112.9200    13.5930 OS            1 RES     
   17110 O          102.3390   104.1420     7.6210 O             1 RES     
   17111 O          141.9660   130.8780     9.8350 O             1 RES     
   17112 Si         135.8660   149.2400     2.9200 Si            1 RES     
   17113 O          108.7220   118.7280     5.6150 O             1 RES     
   17114 O          114.6250   103.0450    13.8430 O             1 RES     
   17115 Si         135.9630   137.4350     6.4760 Si            1 RES     
   17116 Si         105.4570   115.2780     7.5350 Si            1 RES     
   17117 OS         127.9400   114.5790    12.6080 OS            1 RES     
   17118 Si         143.3240   141.8310     3.2860 Si            1 RES     
   17119 Si         143.4030   146.2690     6.1900 Si            1 RES     
   17120 Si         129.6460   111.3040     7.7860 Si            1 RES     
   17121 O          136.5260   114.3320    10.5830 O             1 RES     
   17122 O          136.0060   143.7990     6.4990 O             1 RES     
   17123 Si         108.0120   114.4310     6.0600 Si            1 RES     
   17124 O          138.2490   118.3300     8.8490 O             1 RES     
   17125 O          143.7310   119.8350     3.3930 O             1 RES     
   17126 O          127.6680   135.9060     3.0870 O             1 RES     
   17127 O          100.4900   143.5340    10.0180 O             1 RES     
   17128 O          113.6420   135.4190     6.9260 O             1 RES     
   17129 Si         112.9910   127.1330    10.9580 Si            1 RES     
   17130 Si         123.8630   145.8620    11.9930 Si            1 RES     
   17131 O          122.2970   148.3590     5.3120 O             1 RES     
   17132 Si         125.9610   105.2320     7.8690 Si            1 RES     
   17133 O          124.2940   101.8930     2.7680 O             1 RES     
   17134 O          116.4760   137.7040     4.3180 O             1 RES     
   17135 OS         122.5200   149.9330    12.4180 OS            1 RES     
   17136 O          138.9960   106.4630     3.1540 O             1 RES     
   17137 Si         110.7150   131.6810    12.0640 Si            1 RES     
   17138 O          134.5510   135.6090    12.8760 O             1 RES     
   17139 Si         140.2900   117.2020     6.6710 Si            1 RES     
   17140 O          100.1750   117.8730     2.5890 O             1 RES     
   17141 O          144.9450   125.3230     1.8730 O             1 RES     
   17142 O          125.4540   116.6890     4.0590 O             1 RES     
   17143 O          121.2320   141.1290     3.7910 O             1 RES     
   17144 O          147.9910   120.1320     7.5240 O             1 RES     
   17145 O          128.9260   101.4310     7.6320 O             1 RES     
   17146 Si         124.1400   106.9550     9.6920 Si            1 RES     
   17147 Si         110.0460   145.8610    12.3140 Si            1 RES     
   17148 O          119.5920   146.6460     7.8140 O             1 RES     
   17149 O          149.2820   113.9790     6.4470 O             1 RES     
   17150 Si         132.7610   130.8370     8.0090 Si            1 RES     
   17151 OS         136.0280   119.1090    11.6440 OS            1 RES     
   17152 O          125.9280   136.2850     9.9660 O             1 RES     
   17153 Si         108.0890   109.1650     3.4690 Si            1 RES     
   17154 O          107.4840   143.0870     8.6110 O             1 RES     
   17155 O          101.1320   127.7500     4.4110 O             1 RES     
   17156 Si         141.8280   148.1740     7.9800 Si            1 RES     
   17157 Si         138.2600   109.3290     6.6120 Si            1 RES     
   17158 O          140.4440   145.0910    11.7210 O             1 RES     
   17159 O          122.1720   128.9880    12.0870 O             1 RES     
   17160 O          122.5850   142.3680     5.5940 O             1 RES     
   17161 OS         106.3640   100.9860    13.3560 OS            1 RES     
   17162 O          121.1010   118.6210     4.3820 O             1 RES     
   17163 O          128.6020   125.5380    10.9880 O             1 RES     
   17164 Si         145.1290   116.0420     5.8950 Si            1 RES     
   17165 OS         148.0560   145.4530    12.2910 OS            1 RES     
   17166 O          114.1680   124.4350     1.8690 O             1 RES     
   17167 O          113.8490   113.9900     5.4690 O             1 RES     
   17168 Si         141.6930   122.5180     5.2840 Si            1 RES     
   17169 O          107.7250   110.1780     9.7690 O             1 RES     
   17170 O          115.1780   141.4640     6.7210 O             1 RES     
   17171 O          100.5540   124.3760     6.7230 O             1 RES     
   17172 Si         138.2510   139.6490    11.1770 Si            1 RES     
   17173 O          113.2470   104.9020     3.6700 O             1 RES     
   17174 O          137.0490   108.3670     5.3170 O             1 RES     
   17175 O          118.5340   109.5700     4.7320 O             1 RES     
   17176 O          128.1010   107.5450     8.9600 O             1 RES     
   17177 O          104.4450   149.1510     3.9220 O             1 RES     
   17178 Si         134.1500   100.2340     6.9910 Si            1 RES     
   17179 O          128.9690   100.5530     5.4100 O             1 RES     
   17180 O          125.2910   145.2430    11.4690 O             1 RES     
   17181 OS         148.5810   100.0460    12.8100 OS            1 RES     
   17182 O          109.1010   141.7060     7.7430 O             1 RES     
   17183 OS         148.7460   116.5420    13.5350 OS            1 RES     
   17184 O          102.8580   131.2520    11.5010 O             1 RES     
   17185 O          128.9490   132.9340     4.0500 O             1 RES     
   17186 Si         146.1820   113.6870    12.6920 Si            1 RES     
   17187 O          122.4060   127.0210     4.5720 O             1 RES     
   17188 O          132.4200   122.4380     3.8130 O             1 RES     
   17189 Si         119.3320   137.9810     7.2560 Si            1 RES     
   17190 OS         113.0730   133.9140    13.3170 OS            1 RES     
   17191 OS         101.1850   149.5760    12.8470 OS            1 RES     
   17192 Si         123.2730   136.9670    11.8210 Si            1 RES     
   17193 O          125.0460   137.2640     7.3890 O             1 RES     
   17194 O          114.9480   119.2350     6.0250 O             1 RES     
   17195 O          120.8760   130.5270     2.4170 O             1 RES     
   17196 Si         147.2880   148.5670     9.7450 Si            1 RES     
   17197 Si         139.1580   105.4970    12.3780 Si            1 RES     
   17198 O          106.1050   135.7080     4.4190 O             1 RES     
   17199 OS         136.5980   102.3970    12.3880 OS            1 RES     
   17200 Si         115.4760   120.6070     6.7620 Si            1 RES     
   17201 O          114.5900   133.3570    11.3350 O             1 RES     
   17202 Si         117.0470   100.9500    12.4370 Si            1 RES     
   17203 O          102.3170   107.2640     8.3850 O             1 RES     
   17204 O          109.0200   136.3940     7.3610 O             1 RES     
   17205 OS         100.4130   136.1710    11.9020 OS            1 RES     
   17206 O          107.3160   117.2230    10.7510 O             1 RES     
   17207 O          148.3180   149.4250     8.8890 O             1 RES     
   17208 Si         146.3050   107.2390    11.5810 Si            1 RES     
   17209 Si         100.9870   122.4530    12.7220 Si            1 RES     
   17210 O          126.4740   116.1000     1.6920 O             1 RES     
   17211 O          112.6550   143.2920    11.9990 O             1 RES     
   17212 OS         143.5260   105.4500    13.6310 OS            1 RES     
   17213 O          112.0960   109.1050     6.9030 O             1 RES     
   17214 Si         134.7290   119.2200    10.7460 Si            1 RES     
   17215 O          109.8690   136.6850     4.6570 O             1 RES     
   17216 O          106.2950   149.5440    10.8970 O             1 RES     
   17217 O          141.9290   117.3280     6.3350 O             1 RES     
   17218 O          109.4350   146.6280     4.5100 O             1 RES     
   17219 O          140.4240   108.4670     2.8820 O             1 RES     
   17220 Si         126.2590   107.5200    11.9100 Si            1 RES     
   17221 O          132.8230   146.4750     9.3520 O             1 RES     
   17222 Si         106.6160   122.6860     3.5980 Si            1 RES     
   17223 O          127.6590   126.8770     8.9330 O             1 RES     
   17224 Si         115.6720   143.1520     3.8470 Si            1 RES     
   17225 O          144.8030   125.8370     6.1180 O             1 RES     
   17226 O          112.3800   100.3960     4.1410 O             1 RES     
@<TRIPOS>BOND
       1     8635     9286 1
       2    10782    10838 1
       3     1021      600 1
       4    12140    13114 1
       5     4335     4598 1
       6    13273    13382 1
       7    11206    11470 1
       8    13828    14908 1
       9    14439    15162 1
      10    10894    11563 1
      11     5498     6020 1
      12    16080    16746 1
      13     8166     9202 1
      14    12481    13084 1
      15     1543      209 1
      16     7231     8768 1
      17     8420     9128 1
      18    13958    16197 1
      19    10216    11199 1
      20     6432     8559 1
      21      690      787 1
      22    15773    16081 1
      23     8928     7842 1
      24     3400     2213 1
      25     7920     9966 1
      26     9496     9543 1
      27     4962     5032 1
      28     1616      184 1
      29     5572     5618 1
      30    13715    15122 1
      31    14588    14860 1
      32     9661     9956 1
      33      724     1232 1
      34     3949     4646 1
      35     3646     4557 1
      36    12037    12880 1
      37    10068    11771 1
      38    10708    10777 1
      39     9016    10000 1
      40     7260     8786 1
      41     7990    10051 1
      42    14332    14856 1
      43     2889     2595 1
      44      982     1406 1
      45     1679      351 1
      46     8368     9620 1
      47     1260      558 1
      48     5717     5842 1
      49    11938    13012 1
      50    13996    14503 1
      51    11110    11358 1
      52    10271    11289 1
      53    12513    13029 1
      54    12115    12960 1
      55     8210     8285 1
      56    13989    14351 1
      57     9434    10042 1
      58    10397    11615 1
      59     8278     9281 1
      60     2146     2319 1
      61     3296     2742 1
      62    15497    16258 1
      63     1096      461 1
      64    10098    11119 1
      65       38     1120 1
      66     1207      274 1
      67     7321     8028 1
      68    17071    17139 1
      69     7740     8563 1
      70     2214     2626 1
      71     3189     1910 1
      72     4055     4369 1
      73    10921    11595 1
      74     3733     4794 1
      75     6877     7103 1
      76     7365     9330 1
      77    16746    17070 1
      78     1434      298 1
      79     2212     1817 1
      80    14051    15093 1
      81     4729     5109 1
      82     5606     6430 1
      83     6030    13533 1
      84     7544     9699 1
      85      951     1362 1
      86     9511    10036 1
      87      722      555 1
      88    14974    15174 1
      89     7136     7362 1
      90    12024    13389 1
      91     3127     2042 1
      92    14124    14425 1
      93     4259     4271 1
      94     3769     4384 1
      95    14765    14936 1
      96     3297     2708 1
      97     6465     6697 1
      98     3097     2101 1
      99    12435    12630 1
     100    12546    12684 1
     101     4019     4167 1
     102     5614     6581 1
     103     6309     6352 1
     104     9053     8595 1
     105      515      341 1
     106     3744     4992 1
     107    16142    16852 1
     108    15862    17162 1
     109     7838     9543 1
     110     2915     1995 1
     111    11975    13514 1
     112     5367     6289 1
     113     4628     5116 1
     114     7645     9497 1
     115    14190    14879 1
     116     3307     3361 1
     117    16191    17192 1
     118    12660    13471 1
     119    15451    16383 1
     120    10955    11499 1
     121     3659     4806 1
     122     3748     5130 1
     123    10381    10721 1
     124     7726     7953 1
     125     9117     9929 1
     126    12940    13181 1
     127    10438    10622 1
     128     4174     4591 1
     129     2970     2241 1
     130    11926    12378 1
     131     3525     2421 1
     132     5619     6706 1
     133     8513     9903 1
     134     1210     1518 1
     135    12285    12305 1
     136    10520    10607 1
     137     7807     9965 1
     138    12690    12752 1
     139     4031     4457 1
     140      311     1749 1
     141     5443     6273 1
     142    12099    12302 1
     143    14273    14295 1
     144    16505    17226 1
     145     4576     4972 1
     146    15946    16297 1
     147      675     1353 1
     148     4170     4303 1
     149    13997    14035 1
     150    14967    15111 1
     151     6129     6667 1
     152     6191     7006 1
     153     3754     5197 1
     154     7752     8832 1
     155     8422     9339 1
     156    11420    11428 1
     157    12563    12953 1
     158     2845    13869 1
     159    10270    11296 1
     160     8300     9263 1
     161    16608    16724 1
     162     8494     9656 1
     163     4519     5092 1
     164     5442     6626 1
     165    14794    15173 1
     166     8085     9318 1
     167    10326    10720 1
     168     2864     2668 1
     169     6262     6983 1
     170     7225     7233 1
     171     2048     1846 1
     172     5762     6210 1
     173     9425     9481 1
     174    14409    15056 1
     175     6237     6287 1
     176     7247     9090 1
     177    15608    16212 1
     178    10278    10404 1
     179     8141     9603 1
     180     7703     8275 1
     181    11325    11637 1
     182     8893     8389 1
     183     1141      238 1
     184    13284    13357 1
     185     1596      342 1
     186     5930     6945 1
     187     4370     4974 1
     188    14057    14064 1
     189     4360     4972 1
     190     5694     7148 1
     191    15611    17052 1
     192     1084      692 1
     193    14072    15370 1
     194     5946     6314 1
     195    10537    10853 1
     196     7800    10006 1
     197     9073     9512 1
     198     4251     5091 1
     199     7249     8463 1
     200    10181    11637 1
     201     5457     7095 1
     202    14712    15225 1
     203    16382    16798 1
     204     3935     5101 1
     205     7209     8539 1
     206     2770     2450 1
     207     8378     8414 1
     208    15450    15630 1
     209     4836     5048 1
     210    12844    13282 1
     211     5493     6784 1
     212     4195     4420 1
     213     3783     4244 1
     214    12332    13208 1
     215     6307     6621 1
     216     6190     6427 1
     217    16666    17038 1
     218    14038    15137 1
     219     8415     9999 1
     220    11924    12540 1
     221     3026     1484 1
     222    15197    15307 1
     223    10139    10601 1
     224    12522    13363 1
     225    14229    14620 1
     226       65     1602 1
     227       57     1101 1
     228     5997     6834 1
     229     2840     1995 1
     230     5490     6617 1
     231     3309     2198 1
     232    16154    16698 1
     233     3644     4044 1
     234     6525     7032 1
     235    14326    15380 1
     236    10363    11822 1
     237     6004     6871 1
     238     3584     4044 1
     239    12655    12947 1
     240    12233    13091 1
     241    15523    16590 1
     242    12594    13041 1
     243    12605    12672 1
     244    12927    13463 1
     245     8483     9269 1
     246    15457    15923 1
     247    14043    15160 1
     248    11963    12290 1
     249     8069     8622 1
     250    15771    16354 1
     251    15430    16171 1
     252    12208    12352 1
     253     6390     6723 1
     254    14639    15076 1
     255     5712     6468 1
     256     8901     7353 1
     257     5402     6886 1
     258     9173     9599 1
     259    13217    13576 1
     260     8485     8716 1
     261    12245    12907 1
     262     3300     2133 1
     263     1436      288 1
     264     7172     8499 1
     265    10732    11405 1
     266     1130      658 1
     267     9057     9662 1
     268    16471    16778 1
     269     7383     8839 1
     270     6102     7120 1
     271     8963     8383 1
     272     3061     2463 1
     273    14162    15049 1
     274    14593    14751 1
     275     9069    10023 1
     276    10198    11048 1
     277    10321    10408 1
     278     1207      226 1
     279     1388      444 1
     280    10999    11820 1
     281      924      343 1
     282     4132     4983 1
     283     8674     9186 1
     284    11874    12556 1
     285    14947    15223 1
     286     6153     6824 1
     287    13608    15976 1
     288    10683    11829 1
     289    11060    11524 1
     290      532     1598 1
     291     8885     9198 1
     292     8430    10019 1
     293    10812    11347 1
     294    10882    11601 1
     295    12037    12353 1
     296    15561    15680 1
     297     2890     2681 1
     298    15753    16733 1
     299     1820     8158 1
     300     5103     5221 1
     301     6967     9388 1
     302     5774     6283 1
     303    13841    14769 1
     304    12285    12496 1
     305    12740    12991 1
     306    10669    11749 1
     307    14248    14645 1
     308      863     1121 1
     309    15787    16151 1
     310       55      415 1
     311    14837    15311 1
     312    10414    11301 1
     313     5977     6352 1
     314     9070     8509 1
     315     4523     5039 1
     316    16061    16238 1
     317    11972    12954 1
     318     8838     9147 1
     319    10807    11253 1
     320    10673    11605 1
     321     6061     6599 1
     322     3100     2519 1
     323     5660     6566 1
     324     4020     5069 1
     325    13957    14264 1
     326     3648     4796 1
     327     5979     6943 1
     328    14197    15061 1
     329    14036    14304 1
     330      836      138 1
     331     3637     4934 1
     332     3745     3786 1
     333     3068     2103 1
     334     6139     6362 1
     335     5830     7113 1
     336    13653    13770 1
     337     7844     7904 1
     338     4435     4890 1
     339     1641     1727 1
     340     8558     9739 1
     341     2219     2038 1
     342     5999     7045 1
     343     5955     6090 1
     344    12208    12920 1
     345    16073    16095 1
     346     3670     4729 1
     347    10459    10951 1
     348     7343     8835 1
     349     3856     3905 1
     350      701      591 1
     351      721     1263 1
     352    13035    13145 1
     353    10621    11248 1
     354     2178     2462 1
     355      701      145 1
     356     8746     9623 1
     357      998     1412 1
     358    11104    11366 1
     359     3066     2224 1
     360     9847     9947 1
     361       46      988 1
     362     1626     1648 1
     363       68      472 1
     364    10302    10648 1
     365    17114    17202 1
     366    14040    14866 1
     367     2329     2667 1
     368     1994     2455 1
     369    11996    12715 1
     370     8293     9235 1
     371      510      193 1
     372     3211     3547 1
     373    15485    16945 1
     374    10336    11008 1
     375    15715    16995 1
     376     3462     2215 1
     377    10226    11220 1
     378    17196    17207 1
     379     8282     9486 1
     380     5644     6245 1
     381    10573    11307 1
     382      696      790 1
     383     3314     2147 1
     384    13768    14965 1
     385     3778      765 1
     386     3279     2390 1
     387     8018     9465 1
     388    15789    17103 1
     389     3592     5101 1
     390     7851     8729 1
     391     4133    16407 1
     392     3657     4484 1
     393     7750     9835 1
     394    16147    16537 1
     395    13268    13603 1
     396    15953    16758 1
     397     8281     8340 1
     398    10480    10976 1
     399    16601    16658 1
     400     2359     2518 1
     401    12516    12815 1
     402    13896    14198 1
     403    12666    13223 1
     404     8495     8729 1
     405     1014     1183 1
     406    16000    16818 1
     407    12114    12161 1
     408    12513    12622 1
     409       73      516 1
     410      327     1759 1
     411    16252    16609 1
     412    15861    16950 1
     413     4409     4615 1
     414    11932    11966 1
     415    16241    16381 1
     416     3349     1792 1
     417     9033    10041 1
     418     7596     9960 1
     419     4784     5089 1
     420    13893    15041 1
     421    13196    13484 1
     422     8500     9852 1
     423    13828    14987 1
     424     5924     6194 1
     425     2538     2632 1
     426     5474     7082 1
     427     5742     6858 1
     428    10537    11569 1
     429    10080    11364 1
     430    12169    13139 1
     431     8155     9386 1
     432    13652    13759 1
     433    15609    16271 1
     434     3877     4993 1
     435    15514    16865 1
     436     8129     9180 1
     437     4359     4476 1
     438    10892    11268 1
     439     4552     5095 1
     440     2905     2012 1
     441     7673     8090 1
     442      974      347 1
     443     3995     4025 1
     444     8904     9965 1
     445     3940     5332 1
     446     5681     6010 1
     447    11960    12363 1
     448     4489     5203 1
     449    14644    15021 1
     450    10715    10834 1
     451    12528    13128 1
     452    16563    17193 1
     453     8556    10634 1
     454     9036     8314 1
     455    10975    11326 1
     456    15488    16748 1
     457     6883     7019 1
     458     3591     4730 1
     459     7754     8230 1
     460     1160     1189 1
     461      813     1639 1
     462    13865    14591 1
     463     4273     4810 1
     464      378      174 1
     465    15788    15959 1
     466    16052    17150 1
     467     9821     9878 1
     468      623     1481 1
     469    14125    15097 1
     470     9155     9991 1
     471     6577     7139 1
     472     3877     5296 1
     473     7733     7886 1
     474    14120    15004 1
     475      734      313 1
     476     9362     9719 1
     477    13807    14553 1
     478    12788    13596 1
     479     7396     8112 1
     480     5923     6270 1
     481     3971     5183 1
     482    15746    15990 1
     483     4630     5076 1
     484    14391    14494 1
     485    10445    10923 1
     486     3206     1840 1
     487     5915     6679 1
     488      758      859 1
     489     7856     7887 1
     490    15138    16065 1
     491    10878    10986 1
     492     4907     5147 1
     493     4268     5222 1
     494    11900    13595 1
     495     6879     7138 1
     496    13707    13990 1
     497     8883     9876 1
     498     4731     5110 1
     499     4012     4633 1
     500     3762     5265 1
     501     6144     6392 1
     502      763     1711 1
     503     3458     1916 1
     504    15638    16825 1
     505    14427    14534 1
     506    15826    16493 1
     507     3382     1861 1
     508    16824    16894 1
     509     7923     8832 1
     510     1610      366 1
     511    15000    15141 1
     512     2421     2678 1
     513       86      128 1
     514    13658    14594 1
     515    12423    12564 1
     516    10222    10672 1
     517     5848     6124 1
     518    10497    11116 1
     519    14388    14933 1
     520      671      461 1
     521    11294    11842 1
     522     8177     9376 1
     523     4152     5117 1
     524     3100     2337 1
     525     7895     9749 1
     526     7162     8736 1
     527    14011    15388 1
     528     3622     3767 1
     529    10491    10654 1
     530     3189     2410 1
     531     7549     7718 1
     532    13097    14713 1
     533    16266    17039 1
     534    12744    13283 1
     535     5464     6220 1
     536    13991    15303 1
     537     1856     2607 1
     538      813     1767 1
     539     6081     7065 1
     540     8031     8355 1
     541    15538    16622 1
     542    13338    13339 1
     543    13872    15228 1
     544    15484    17189 1
     545    10203    11437 1
     546    14035    14449 1
     547    14788    15119 1
     548     5927     6556 1
     549     3406     2207 1
     550    14219    14501 1
     551     7884     8354 1
     552     6785     7057 1
     553    13703    15029 1
     554     5675     7067 1
     555     5897     6919 1
     556      761      832 1
     557    13933    15095 1
     558    10381    10688 1
     559     6144     6874 1
     560    14497    14580 1
     561     2290     1932 1
     562     5515    11856 1
     563     8471     8814 1
     564      965     1588 1
     565     3761     4899 1
     566    12005    12365 1
     567     9491     9980 1
     568    12335    13137 1
     569     3039     2305 1
     570    12253    12569 1
     571    12130    13149 1
     572    12292    12946 1
     573     5359     5583 1
     574     4186     4932 1
     575    15648    16956 1
     576     8242     8739 1
     577     3605     3998 1
     578     8913     8523 1
     579     3662     5258 1
     580    10475    11362 1
     581    15606    16667 1
     582    13747    13844 1
     583    12374    12827 1
     584     2917     3236 1
     585     3000     2182 1
     586    15819    17027 1
     587     1408      147 1
     588     7420    10488 1
     589     3034     2175 1
     590     6283     6841 1
     591    15772    16167 1
     592    14317    14925 1
     593    16787    17030 1
     594    12508    13516 1
     595    15695    15921 1
     596     3873     5146 1
     597      135     5343 1
     598     5875     6007 1
     599    11935    11951 1
     600     7804     8683 1
     601    10887    15938 1
     602     3649     3985 1
     603     8032     9335 1
     604     9194    10055 1
     605    12849    13225 1
     606      835     1605 1
     607     9180     9888 1
     608     3728     4924 1
     609    13782    15136 1
     610    14208    15182 1
     611     7828     8559 1
     612    13754    14181 1
     613    10625    11434 1
     614    15655    16554 1
     615    10407    11802 1
     616      691    11986 1
     617     8928     7412 1
     618     3078     3282 1
     619     8938     9681 1
     620     6211     6852 1
     621     7573     8020 1
     622     3986     4563 1
     623     4298     4454 1
     624    11939    12374 1
     625      784      133 1
     626    12046    12173 1
     627     3250     2683 1
     628    12675    13447 1
     629    12561    13315 1
     630    15447    15832 1
     631      470      248 1
     632    10197    10934 1
     633     4517     4620 1
     634     3322     3340 1
     635     8481     9139 1
     636     3225     2684 1
     637    16913    16942 1
     638      649      345 1
     639    16408    16712 1
     640     4249      694 1
     641    12779    13198 1
     642     5978     6927 1
     643     2876      459 1
     644     3218     2530 1
     645    15784    16058 1
     646    14443    14586 1
     647     8997     9603 1
     648    13675    14701 1
     649     1026     1499 1
     650    14096    14505 1
     651    15637    17108 1
     652     9001     9111 1
     653     7271     9325 1
     654    12032    13166 1
     655    13489    16690 1
     656     8215     9559 1
     657     7594    10033 1
     658     7584     8601 1
     659     2407     2605 1
     660     7629    10020 1
     661     5459     6452 1
     662     7779     9210 1
     663    16486    16684 1
     664     3690     4774 1
     665     2906     3312 1
     666    10372    10957 1
     667     3661     5183 1
     668     6241     6985 1
     669     6941     7068 1
     670     3172     3571 1
     671    15691    15810 1
     672     8666     9920 1
     673     3209     2350 1
     674     7509     7648 1
     675     8408     8732 1
     676    15696    15962 1
     677    14687    15347 1
     678     4130     4295 1
     679    12276    13360 1
     680    15659    16486 1
     681     3021     2483 1
     682     8106     9721 1
     683       18      157 1
     684     8778     9458 1
     685     9417     9919 1
     686     5768     6193 1
     687     9037     7995 1
     688    10534    11306 1
     689    10440    11466 1
     690     6622     6788 1
     691    13738    14403 1
     692    13987    14127 1
     693     2230     2643 1
     694     8094     8793 1
     695    12025    12384 1
     696     5474     6687 1
     697    11022    11686 1
     698     5982     6971 1
     699    11114    11819 1
     700    11884    16397 1
     701     1891     2552 1
     702     5614     5656 1
     703    10079    11005 1
     704    11903    12339 1
     705     5395     6899 1
     706    12176    12532 1
     707    12752    12965 1
     708     4600     4933 1
     709     5793     6323 1
     710     8885     8444 1
     711    16480    17117 1
     712     3236     2419 1
     713    14439    14716 1
     714    10113    11564 1
     715    15735    16642 1
     716    15614    16583 1
     717     1711      299 1
     718     7397     8678 1
     719     7435     7961 1
     720    10441    10555 1
     721    13584    17033 1
     722    15786    17156 1
     723     3527     2122 1
     724    12608    13174 1
     725     2811     3062 1
     726     8489     9643 1
     727     8096     9218 1
     728     6310     6726 1
     729    12751    13038 1
     730     3170     1934 1
     731     2926     2173 1
     732     4053     5047 1
     733    15540    16134 1
     734    12301    12726 1
     735    12288    12702 1
     736    16355    16910 1
     737     4928     5211 1
     738    10650    11373 1
     739     6345     7084 1
     740     8412     8567 1
     741      554     6051 1
     742     2895     2177 1
     743    12393    12960 1
     744     7819     7862 1
     745     3664     4003 1
     746    12247    12736 1
     747    10326    10372 1
     748     7366     8726 1
     749     2877     3080 1
     750      654     1716 1
     751     1233     1702 1
     752     7199     9457 1
     753     1695      189 1
     754     4451     4945 1
     755    14257    14784 1
     756     4734     4432 1
     757    16166    16955 1
     758    10523    11559 1
     759    11931    12938 1
     760     7779     8591 1
     761    12234    13434 1
     762     7278     9457 1
     763       14     1719 1
     764     8325     9575 1
     765     5448     6793 1
     766    14045    14110 1
     767     7836     9356 1
     768    10295    10528 1
     769    16214    17035 1
     770     1710     1325 1
     771    12743    12838 1
     772     8636     9958 1
     773    15690    16840 1
     774     7869     9662 1
     775     8719     8762 1
     776     7475     9641 1
     777    11595    11800 1
     778     5639     6176 1
     779    16305    16499 1
     780     2066     1841 1
     781     6413     6683 1
     782     1828     2592 1
     783     2222     2711 1
     784     2933     2681 1
     785     5684     6712 1
     786    15452    16747 1
     787     4073     4682 1
     788    10573    11784 1
     789    12869    13119 1
     790     9580     9883 1
     791    14394    14913 1
     792     6298     6720 1
     793      555     1320 1
     794      102      508 1
     795    13878    14288 1
     796    10730    10991 1
     797     1666      118 1
     798     5627     5697 1
     799     5715     6915 1
     800     4395     4503 1
     801     1051      539 1
     802     3833     3908 1
     803    13890    15143 1
     804     5733     6709 1
     805     3287     4206 1
     806     7928     9661 1
     807    10651    10787 1
     808    16659    16757 1
     809    10880    11433 1
     810      886     1231 1
     811     8558     9452 1
     812     8432     8603 1
     813    10151    11210 1
     814    10415    11671 1
     815     4141     4767 1
     816     9733     9921 1
     817     6340     6873 1
     818     1122     1528 1
     819     6409     7047 1
     820     7384     7992 1
     821     3757     4750 1
     822     2294     1863 1
     823     2228     2567 1
     824    10528    11133 1
     825      986      532 1
     826     1011      230 1
     827       74      760 1
     828    12967    13603 1
     829    13944    14027 1
     830    10675    11630 1
     831     5090     5223 1
     832     2912     3025 1
     833    16445    16617 1
     834     8521     9829 1
     835    11374    11620 1
     836     8420     9425 1
     837    14230    14611 1
     838     6415     6612 1
     839     5725     6638 1
     840    10509    10985 1
     841     1244      168 1
     842     3528     2231 1
     843    15431    15867 1
     844    16480    16749 1
     845     7906     9232 1
     846    13650    14509 1
     847     5975     6703 1
     848     3860     5132 1
     849    12590    13330 1
     850     8424     9976 1
     851     3696     5114 1
     852    13676    14557 1
     853     4277     5350 1
     854     7401    13645 1
     855     3920     4785 1
     856    13868    14779 1
     857    16413    16901 1
     858     8047     9665 1
     859    15271    15340 1
     860    13742    14496 1
     861     2480     2572 1
     862    16192    17042 1
     863    10804    11485 1
     864     6095     7130 1
     865     1534      313 1
     866     6421     6780 1
     867     7806     8833 1
     868    10749    11588 1
     869     7363     7778 1
     870     1641      252 1
     871     3271     2608 1
     872     7504     9379 1
     873     8917     7756 1
     874     8394    10876 1
     875     6668     6982 1
     876     6454    11751 1
     877    14337    14774 1
     878     1081      888 1
     879    14253    15117 1
     880     5892     6682 1
     881     8927     8733 1
     882    10501    11440 1
     883    14466    15202 1
     884    10276    11283 1
     885      565     1732 1
     886    10490    11603 1
     887    15729    17010 1
     888    16107    16789 1
     889     1070      658 1
     890    14302    14413 1
     891    11951    12132 1
     892    16823    17224 1
     893    16198    16501 1
     894    11862    12075 1
     895     3815     5230 1
     896    15491    16622 1
     897     7928     8610 1
     898     5931     6374 1
     899     1177      496 1
     900     3404     2618 1
     901    14907    15238 1
     902    13948    13955 1
     903    11907    13030 1
     904    14126    14287 1
     905      333     1781 1
     906    12029    13608 1
     907     8909     8914 1
     908    16305    16448 1
     909    12447    12862 1
     910     6536     6537 1
     911     1987     2418 1
     912     1264      207 1
     913    10066    11836 1
     914    16140    16174 1
     915    13950    14008 1
     916     7960     8065 1
     917    12280    13382 1
     918    14633    15049 1
     919    15580    16469 1
     920    12565    13105 1
     921    15544    16866 1
     922    14621    14958 1
     923    13790    13996 1
     924    11942    13023 1
     925     4945     4948 1
     926    13785    14441 1
     927    15907    16223 1
     928     6601     6821 1
     929     2810     1821 1
     930     3870     5007 1
     931    14886    15298 1
     932       43     1582 1
     933     4014     4729 1
     934     4404     5210 1
     935     8486     9950 1
     936    10371    10589 1
     937    13961    14477 1
     938     8939     9260 1
     939    10363    10922 1
     940     5773     6889 1
     941     5729     7077 1
     942     4035     4847 1
     943    12372    12713 1
     944    15490    16100 1
     945    10471    11484 1
     946     5554     6513 1
     947     4068     4782 1
     948    15816    16576 1
     949    16196    16877 1
     950    14310    15155 1
     951       50     1285 1
     952     1283      318 1
     953     6173     7005 1
     954     3695     3777 1
     955      916     1265 1
     956     5443     5591 1
     957     7395     8462 1
     958     1024     1058 1
     959    15999    16541 1
     960    12404    12758 1
     961      493     1654 1
     962     5686     5840 1
     963    16260    17114 1
     964    14098    14336 1
     965    10067    11298 1
     966    10780    11053 1
     967     8941     7987 1
     968     1410      200 1
     969     1408     1757 1
     970      547      228 1
     971    10896    11077 1
     972    12104    12465 1
     973    10773    10957 1
     974     8457     9148 1
     975    10975    11121 1
     976    15986    17032 1
     977    16036    16454 1
     978    11913    12314 1
     979     2911     3494 1
     980    16461    16892 1
     981     3394     2021 1
     982     4319     5059 1
     983      639      380 1
     984    16292    16595 1
     985    15641    17109 1
     986     8472     9839 1
     987     7280     9578 1
     988     8060     8725 1
     989    13753    14290 1
     990    10841    11562 1
     991     7687     8291 1
     992    12188    12972 1
     993    12701    12784 1
     994     8864     8667 1
     995    11899    12258 1
     996     3525     2695 1
     997     7277     8503 1
     998     3214     1873 1
     999    10199    10758 1
    1000     6972     7014 1
    1001    10073    10927 1
    1002    13879    15262 1
    1003     3711     4867 1
    1004     7316     9791 1
    1005    11228    11652 1
    1006    10398    10901 1
    1007    10070    10122 1
    1008    10268    11724 1
    1009     8236     9257 1
    1010    16672    17057 1
    1011        5     1565 1
    1012     6373     6545 1
    1013     6173     6467 1
    1014     4215     4425 1
    1015    16321    17034 1
    1016     8995     7998 1
    1017    15580    16239 1
    1018    10224    10612 1
    1019    13686    13913 1
    1020     5785     6238 1
    1021    15479    16469 1
    1022     8383     9312 1
    1023    12301    14730 1
    1024    10621    11476 1
    1025     6553     7045 1
    1026    12256    12764 1
    1027      718     1154 1
    1028    15394    15400 1
    1029     7231     9988 1
    1030    13938    15331 1
    1031     5698     6699 1
    1032     6214     6982 1
    1033     2342    14614 1
    1034    12038    13294 1
    1035    14175    14515 1
    1036    11337    11696 1
    1037     7839     8239 1
    1038     9145     9688 1
    1039    12776    13204 1
    1040     2922     3503 1
    1041     5549     6146 1
    1042    14485    14565 1
    1043    10671    11308 1
    1044     7499     7778 1
    1045     8271    15327 1
    1046     9623    10684 1
    1047     4395     5321 1
    1048     6978    10007 1
    1049     3459     1998 1
    1050     8952     8832 1
    1051    13513    13528 1
    1052     3067     2072 1
    1053     5441     6464 1
    1054    11161    11696 1
    1055    16129    17106 1
    1056    13866    13922 1
    1057     5404     7123 1
    1058     3626     4608 1
    1059     4110     5126 1
    1060     4322     4972 1
    1061    12060    13085 1
    1062     1979     1913 1
    1063    15823    16776 1
    1064    10693    10950 1
    1065    16542    16633 1
    1066     7402     9292 1
    1067    12605    12812 1
    1068    11891    11894 1
    1069     1419      171 1
    1070    13829    14219 1
    1071    11989    13421 1
    1072      329      202 1
    1073    12342    12951 1
    1074     4473     5038 1
    1075     4917     5140 1
    1076     2223     2409 1
    1077     4884     4967 1
    1078     6526     6919 1
    1079     5699     7010 1
    1080     5986     6746 1
    1081     4895     5257 1
    1082     5990     6557 1
    1083     2180     1872 1
    1084    13834    14266 1
    1085     8059     8498 1
    1086    16704    16809 1
    1087    10700    11212 1
    1088    10430    10528 1
    1089     8533     9579 1
    1090     5416     6462 1
    1091    10105    11338 1
    1092     9109     9343 1
    1093     8764     9321 1
    1094     3773     4983 1
    1095     5444     6443 1
    1096     3552     2747 1
    1097      646      149 1
    1098    16310    17213 1
    1099     8495     9245 1
    1100      702      844 1
    1101     7333     9212 1
    1102     5625     6586 1
    1103     2872     2354 1
    1104      997     1636 1
    1105     1695      306 1
    1106      847     1558 1
    1107    12478    13295 1
    1108    12744    12976 1
    1109    11051    11661 1
    1110    14649    14823 1
    1111    16339    16964 1
    1112    15493    16556 1
    1113    14372    14831 1
    1114     2997     2743 1
    1115    16115    16668 1
    1116    12270    13455 1
    1117    14351    14977 1
    1118    15782    16985 1
    1119     3362     2427 1
    1120     9134     9606 1
    1121    13173    13195 1
    1122    11251    11576 1
    1123    12199    12226 1
    1124    12192    12843 1
    1125      746     1137 1
    1126     3071     2370 1
    1127     3938     4801 1
    1128      968      790 1
    1129     3451     2122 1
    1130     2364     2430 1
    1131     8966     8046 1
    1132     5846     5903 1
    1133     3180     3424 1
    1134     2833     3495 1
    1135     3618     5093 1
    1136    11141    11619 1
    1137     4725     4991 1
    1138     2929     1946 1
    1139     8175     9379 1
    1140     7265     9750 1
    1141      647     1415 1
    1142    16556    16961 1
    1143     6055     6673 1
    1144    13821    14798 1
    1145      209    12632 1
    1146     2897     2291 1
    1147     3561     2660 1
    1148    12068    12209 1
    1149     7868     8713 1
    1150     6120     6637 1
    1151     6529     6589 1
    1152       70      988 1
    1153    12124    12795 1
    1154    10239    10883 1
    1155      946     1229 1
    1156      668     5992 1
    1157     5422     6550 1
    1158     3092     2474 1
    1159     3891     4857 1
    1160     8706     8789 1
    1161     5854     6121 1
    1162     4512     4987 1
    1163      466     1784 1
    1164    12289    12372 1
    1165    10315    10678 1
    1166     3765     4580 1
    1167      893     1341 1
    1168      954      744 1
    1169     8739     9155 1
    1170     5547     7140 1
    1171     7219     9962 1
    1172     7724     7769 1
    1173    13449    13491 1
    1174     7389     9312 1
    1175    11286    11754 1
    1176    14245    14675 1
    1177     3645     4427 1
    1178    13819    15305 1
    1179    11216    11668 1
    1180     8189     8564 1
    1181     2269     2741 1
    1182    10167    10758 1
    1183    14672    14886 1
    1184     7557     9478 1
    1185     6399     6446 1
    1186    15686    16214 1
    1187     8582     9952 1
    1188     3167     2411 1
    1189     4906     4927 1
    1190     8951     9850 1
    1191    15529    16599 1
    1192     7322     8729 1
    1193    13142    13357 1
    1194     3301     2268 1
    1195      542      181 1
    1196    13002    13077 1
    1197    11906    13202 1
    1198    16201    16720 1
    1199    10856    11721 1
    1200     5388     6988 1
    1201    10818    11517 1
    1202     2369     2735 1
    1203     6525     6711 1
    1204    16730    17223 1
    1205    12730    13442 1
    1206    16273    16624 1
    1207    13410    13629 1
    1208    16563    16937 1
    1209     2875     2272 1
    1210     3512     2220 1
    1211    15852    15883 1
    1212     4298     4353 1
    1213     7471     9959 1
    1214     8286     8368 1
    1215    10299    10716 1
    1216     5889     6156 1
    1217     8796    10039 1
    1218    12005    12459 1
    1219    13061    13089 1
    1220    11858    11910 1
    1221     1379    13767 1
    1222    16045    16470 1
    1223    12325    12385 1
    1224    12101    13184 1
    1225     5497     6690 1
    1226    10186    10948 1
    1227    10267    11030 1
    1228    13831    14966 1
    1229     4087     4694 1
    1230    15608    15915 1
    1231     6297     6349 1
    1232     8565     8666 1
    1233     6564     8830 1
    1234    11929    12648 1
    1235     7610    14240 1
    1236    12651    12790 1
    1237    11974    12666 1
    1238     4740     4800 1
    1239    15784    15910 1
    1240     6215     6539 1
    1241     1275      365 1
    1242     1142      388 1
    1243     1875     1907 1
    1244    16306    16391 1
    1245     7240     9994 1
    1246     4134     4814 1
    1247     8326     9408 1
    1248    15847    16535 1
    1249     3396     7408 1
    1250    14201    15055 1
    1251     6308     6885 1
    1252     5934     6246 1
    1253    16028    16853 1
    1254      750     1157 1
    1255    13873    15133 1
    1256     4452     5198 1
    1257    12315    13222 1
    1258     4097     4121 1
    1259     4737     5126 1
    1260     7262     9208 1
    1261     7567     8564 1
    1262     8916     7703 1
    1263     4630     4594 1
    1264     5502     6162 1
    1265     5701     6305 1
    1266    12730    13238 1
    1267    10504    10647 1
    1268    12081    12983 1
    1269    14166    15191 1
    1270    14076    14498 1
    1271    14593    14934 1
    1272    13974    14768 1
    1273     4338     5317 1
    1274    13041    13517 1
    1275     5885     6914 1
    1276     3863     1356 1
    1277     6528     7137 1
    1278    12870    13151 1
    1279    14663    15134 1
    1280     9061     7387 1
    1281     3567     2118 1
    1282    15449    15540 1
    1283    10721    11725 1
    1284     4260     5354 1
    1285     2759     2195 1
    1286     8201     8791 1
    1287    12533    12630 1
    1288    12933    13465 1
    1289     3609     4599 1
    1290     7380     9718 1
    1291     2553     2592 1
    1292     1842     2708 1
    1293    12372    13160 1
    1294    15808    16070 1
    1295     8418     9553 1
    1296    12549    14652 1
    1297     8930     7229 1
    1298     2775     2200 1
    1299     8641     9410 1
    1300      850      262 1
    1301     3460     2448 1
    1302    16813    17141 1
    1303     5567     7030 1
    1304     4137     4481 1
    1305     7317     7874 1
    1306     6720    10345 1
    1307     8779     9639 1
    1308    14242    14244 1
    1309     7604     9839 1
    1310     1592     1759 1
    1311    16438    16835 1
    1312     5702     5877 1
    1313       35      833 1
    1314    12077    15567 1
    1315     7714     8766 1
    1316    14282    14924 1
    1317     3952     5018 1
    1318     3454     2486 1
    1319    10380    10533 1
    1320    14992    15277 1
    1321     5679     6825 1
    1322    13808    14196 1
    1323      525      227 1
    1324    10624    10636 1
    1325     8013     9229 1
    1326     4378     4899 1
    1327    13684    15261 1
    1328     3298     2659 1
    1329    14154    14227 1
    1330    10395    11130 1
    1331     8556     9199 1
    1332     3813     4658 1
    1333     8963     9798 1
    1334     2820     2898 1
    1335     1814     2652 1
    1336     8239     9443 1
    1337     7907     9103 1
    1338    13774    14680 1
    1339    12631    13052 1
    1340     4227     4332 1
    1341     3707     3920 1
    1342     7266     7789 1
    1343    15543    15952 1
    1344     2016     2405 1
    1345     1906     2489 1
    1346    15987    16714 1
    1347     2784     2133 1
    1348      918     1093 1
    1349     7312     7492 1
    1350     1042     1232 1
    1351    10200    11076 1
    1352     2764     2381 1
    1353    15097    15117 1
    1354     8686     9520 1
    1355     7623     9923 1
    1356     7229     9347 1
    1357     7544     8252 1
    1358     1348      197 1
    1359    12177    12863 1
    1360     3676     4700 1
    1361     7314     7932 1
    1362     6335    12400 1
    1363     3641     3684 1
    1364     1626      249 1
    1365     3380     2083 1
    1366     3348     2128 1
    1367     5737     6789 1
    1368     8794     8812 1
    1369     3020     2571 1
    1370      812      583 1
    1371     9267     9563 1
    1372    11919    13568 1
    1373    15769    15947 1
    1374     8975     7428 1
    1375    15498    16420 1
    1376     7765    10004 1
    1377     4294     4837 1
    1378     6115     6210 1
    1379    12409    13071 1
    1380    15816    17006 1
    1381     7275     9392 1
    1382     7778    10003 1
    1383    10928    11122 1
    1384    15609    16912 1
    1385    16799    17222 1
    1386    12470    13286 1
    1387    15649    16665 1
    1388     1820     1849 1
    1389    13655    13834 1
    1390     9623    11180 1
    1391     7262     9165 1
    1392     1864     2710 1
    1393     5816     5955 1
    1394    12208    13452 1
    1395     8712     9071 1
    1396     3807     1925 1
    1397     7238     9942 1
    1398      157      165 1
    1399    10257    10690 1
    1400    13564    13580 1
    1401     1251      115 1
    1402     6203     6607 1
    1403    14125    14499 1
    1404     3685     4131 1
    1405    12503    12704 1
    1406     8001     9213 1
    1407    13740    13921 1
    1408    13271    13546 1
    1409     2800     3389 1
    1410      743     2603 1
    1411     5514     6398 1
    1412    14583    14685 1
    1413    11135    11808 1
    1414      919      563 1
    1415     5497     5796 1
    1416     7657     8611 1
    1417    10443    10888 1
    1418     8901     9222 1
    1419     6019     7046 1
    1420     2846     2182 1
    1421      828     1487 1
    1422    14276    14378 1
    1423     7507     7878 1
    1424     8108     8828 1
    1425     7555     8824 1
    1426    13999    15396 1
    1427     7725     8558 1
    1428    12045    13105 1
    1429    12015    13522 1
    1430    14757    15151 1
    1431    11931    12213 1
    1432     7269     7318 1
    1433     7254    14754 1
    1434     7969     9258 1
    1435    14487    15106 1
    1436     6158    12929 1
    1437    14044    14263 1
    1438     8095     9790 1
    1439     7674     7764 1
    1440     6486     6720 1
    1441     1088    12641 1
    1442     5541     6531 1
    1443     7506     8492 1
    1444     3294     2748 1
    1445     7769     9154 1
    1446     8190     8530 1
    1447     6383     6908 1
    1448     3422     3489 1
    1449     4707     4474 1
    1450     8965     9642 1
    1451     8980     8343 1
    1452     4392     4748 1
    1453    14480    16009 1
    1454    11940    13570 1
    1455     4023     5102 1
    1456     7349     7972 1
    1457     3714     4374 1
    1458     1297      165 1
    1459    14468    15276 1
    1460    10345    11530 1
    1461     9628     9736 1
    1462     2310     2641 1
    1463    15773    16780 1
    1464     6244     6594 1
    1465    15517    17220 1
    1466     8118     8686 1
    1467    10170    11304 1
    1468    15487    15691 1
    1469     1120     1257 1
    1470    16855    16874 1
    1471     9169     9415 1
    1472     5754     5822 1
    1473     3546     3557 1
    1474     8986     7391 1
    1475     1161     1711 1
    1476     5989     6166 1
    1477     8190    10054 1
    1478    16601    17002 1
    1479     7324     7617 1
    1480    14454    14641 1
    1481     7820     8701 1
    1482    14055    14559 1
    1483      633      326 1
    1484     3553     2567 1
    1485    11852    13206 1
    1486      704     1779 1
    1487     5737     5939 1
    1488    12732    13242 1
    1489    10231    10834 1
    1490     7400     7513 1
    1491     1691     1421 1
    1492     8361     9179 1
    1493    15939    16269 1
    1494    10314    11454 1
    1495    14610    14787 1
    1496     8257     9664 1
    1497    11102    11574 1
    1498    10347    11131 1
    1499     1323      113 1
    1500    13708    14513 1
    1501    10396    10569 1
    1502    10746    10844 1
    1503     1079      805 1
    1504     7218     8496 1
    1505    16050    17013 1
    1506    15589    16579 1
    1507     9125     9357 1
    1508     3548     1863 1
    1509     5434     6119 1
    1510    16202    17206 1
    1511    12988    13015 1
    1512     9864     9885 1
    1513     2007     1869 1
    1514    12606    12867 1
    1515    13743    14826 1
    1516     1268     1603 1
    1517    11443    11832 1
    1518     1897     2340 1
    1519     8504     9646 1
    1520    16434    16796 1
    1521     3217     2201 1
    1522     9295     9678 1
    1523    15839    16158 1
    1524      695     1652 1
    1525    10371    11327 1
    1526      656      248 1
    1527     3686     4274 1
    1528     2992     2092 1
    1529     3006     2732 1
    1530    16869    17210 1
    1531     9578     9677 1
    1532    11878    12673 1
    1533    14451    15338 1
    1534    13174    13419 1
    1535    15567    16859 1
    1536    11930    12237 1
    1537    15982    16591 1
    1538    10546    10819 1
    1539    16156    16394 1
    1540     5829     6228 1
    1541    13104    13319 1
    1542    12052    12747 1
    1543    16169    16524 1
    1544    10856    11396 1
    1545    15956    16291 1
    1546    15460    16300 1
    1547      635      244 1
    1548     3957     4073 1
    1549     3159     1941 1
    1550     3519     2349 1
    1551    10981    11565 1
    1552    11358    11804 1
    1553     7267     8370 1
    1554    15641    16555 1
    1555     3473     2372 1
    1556     3293     1941 1
    1557     7318     9744 1
    1558    15838    16662 1
    1559    14944    15186 1
    1560    10274    11834 1
    1561     7435     8066 1
    1562     7574     7723 1
    1563    13895    14493 1
    1564     4636     4557 1
    1565    13704    14887 1
    1566    10376    11097 1
    1567     6185     6297 1
    1568     5478     6794 1
    1569     4258     4860 1
    1570     8543     9764 1
    1571     7195     8831 1
    1572     8434     9561 1
    1573    10392    11716 1
    1574     4233     4435 1
    1575     3348     2402 1
    1576     2775     1929 1
    1577    11236    11464 1
    1578     4564     4575 1
    1579    14616    14639 1
    1580    10971    11223 1
    1581     8609     9626 1
    1582     3030     2154 1
    1583     3342     2627 1
    1584     7429     8443 1
    1585     5373     5425 1
    1586     1703     1778 1
    1587    12622    12843 1
    1588     9684     9881 1
    1589    15737    16172 1
    1590    13239    13347 1
    1591    14424    14604 1
    1592     3819     4158 1
    1593     6271     6485 1
    1594    15848    16745 1
    1595     5514     6402 1
    1596    16700    16742 1
    1597    14092    14912 1
    1598    14731    14934 1
    1599     9033     9770 1
    1600    12052    12976 1
    1601       27      352 1
    1602    15136    15326 1
    1603    12697    13334 1
    1604      183    12796 1
    1605     8087     9997 1
    1606      727     1477 1
    1607     7421     9942 1
    1608    14970    14991 1
    1609    14675    14752 1
    1610    14280    15005 1
    1611    15445    16963 1
    1612    14008    14694 1
    1613    12067    12756 1
    1614      930      850 1
    1615    16518    17056 1
    1616     3840     3927 1
    1617    11278    11373 1
    1618     2779     3197 1
    1619     3464     2609 1
    1620     6004     6459 1
    1621     9150     9306 1
    1622    10713    11824 1
    1623     4603     4862 1
    1624     8983     8057 1
    1625     6992     7014 1
    1626    14090    14303 1
    1627    12912    14482 1
    1628     8600     8602 1
    1629    14131    14222 1
    1630    15596    16612 1
    1631    13920    15197 1
    1632    12971    13158 1
    1633     5049     5145 1
    1634     4725     4968 1
    1635     5381     6855 1
    1636     2961     3112 1
    1637    11939    12998 1
    1638    10243    11746 1
    1639     7638     8314 1
    1640     9531     9889 1
    1641    15859    16368 1
    1642     8817     9715 1
    1643     1329      117 1
    1644     8888     7403 1
    1645    16399    16943 1
    1646     2690     2729 1
    1647      130      188 1
    1648    11993    13335 1
    1649    12992    13326 1
    1650     2619     2642 1
    1651     3245     2280 1
    1652     1101     2395 1
    1653     3819     4795 1
    1654     1975     2524 1
    1655       85     1232 1
    1656    10085    10547 1
    1657     6557     6566 1
    1658     7905     8028 1
    1659    12531    12872 1
    1660      977     1277 1
    1661    12872    13130 1
    1662     5489     6474 1
    1663    13643    14335 1
    1664     4825    11756 1
    1665    13858    14178 1
    1666     7219     8499 1
    1667    13705    14044 1
    1668     4726     5253 1
    1669    10662    11548 1
    1670    15627    16846 1
    1671    15828    17048 1
    1672     3860     5009 1
    1673    15766    16535 1
    1674    13919    15373 1
    1675     8534     9872 1
    1676     4349     4912 1
    1677     2854     2526 1
    1678    10644    10885 1
    1679    16245    17205 1
    1680    10446    11644 1
    1681     8381     9783 1
    1682    13055    13222 1
    1683     5779     6464 1
    1684    16080    16534 1
    1685     3199     2385 1
    1686    16058    16339 1
    1687    10380    11351 1
    1688     4936     5077 1
    1689     7381     9332 1
    1690     2268     2579 1
    1691    10232    11106 1
    1692    12545    12733 1
    1693     2268     2327 1
    1694     6844     6896 1
    1695     3589     5134 1
    1696     8242     9740 1
    1697     2030     2367 1
    1698    12771    13388 1
    1699     8326     9723 1
    1700    12307    12394 1
    1701     4211     4816 1
    1702     2985     1893 1
    1703    13993    14705 1
    1704     4530     5220 1
    1705     1177     1327 1
    1706      957     1295 1
    1707    15931    16962 1
    1708     3712     4725 1
    1709    13076    13250 1
    1710    14387    15347 1
    1711     8173     9720 1
    1712     8888     8252 1
    1713    13929    14911 1
    1714     6055     7018 1
    1715    13797    14950 1
    1716    16366    16574 1
    1717    14183    15049 1
    1718     3064     2340 1
    1719    15124    15320 1
    1720     5940    10898 1
    1721    12762    12907 1
    1722     6282     6912 1
    1723    14957    15211 1
    1724      665      341 1
    1725     5533     6765 1
    1726     7673     9254 1
    1727     3033     2144 1
    1728     5630     5893 1
    1729      589     1680 1
    1730    12406    13575 1
    1731     6738     6819 1
    1732    12576    12969 1
    1733    14856    14921 1
    1734    12002    13096 1
    1735    14193    15255 1
    1736     8426     9952 1
    1737     7520     9572 1
    1738    14053    14712 1
    1739    13809    14986 1
    1740    12134    14994 1
    1741    15263    15330 1
    1742    13926    14831 1
    1743      633     1591 1
    1744    13851    14999 1
    1745     1508      260 1
    1746    12386    12719 1
    1747      848      344 1
    1748    15428    16176 1
    1749     3891     5032 1
    1750    13734    14764 1
    1751    10849    11081 1
    1752    13105    13182 1
    1753    12693    13375 1
    1754     4973     5001 1
    1755    12138    13527 1
    1756     3887     4954 1
    1757     2929     2579 1
    1758     2269     2325 1
    1759     5510     6005 1
    1760     7421     7608 1
    1761    10465    11281 1
    1762    14513    15132 1
    1763    10110    10560 1
    1764     2838     1792 1
    1765    16637    17200 1
    1766     2249     2430 1
    1767     1075     1590 1
    1768    15951    17168 1
    1769     9730     9837 1
    1770     7893     9130 1
    1771     9162     9205 1
    1772     8996     8671 1
    1773     3734     4097 1
    1774    15473    17192 1
    1775     1103     1608 1
    1776    10069    10752 1
    1777     8344     9234 1
    1778    14150    14612 1
    1779     6339     6363 1
    1780    13075    13545 1
    1781    12085    12784 1
    1782     8791     9475 1
    1783    15467    16073 1
    1784    12625    13443 1
    1785    10341    11360 1
    1786    12129    12888 1
    1787    14182    14795 1
    1788    10193    11352 1
    1789     5229     5300 1
    1790     1972     1915 1
    1791     7220     9722 1
    1792    11886    13423 1
    1793     8905     7912 1
    1794     9401     9538 1
    1795    14943    15252 1
    1796    16601    16661 1
    1797    12714    12908 1
    1798      629     1774 1
    1799     7239     7832 1
    1800    13999    14437 1
    1801    12175    12359 1
    1802     7879     8244 1
    1803     9001     7582 1
    1804     3835     4420 1
    1805    12558    12946 1
    1806     3415     2662 1
    1807     8882     7643 1
    1808       59      264 1
    1809    14194    14895 1
    1810     8646     9266 1
    1811     3959     4405 1
    1812     5432     6611 1
    1813     7984     9778 1
    1814    15088    15330 1
    1815      527      606 1
    1816    14964    15188 1
    1817     3793     4483 1
    1818     6216     6856 1
    1819     3291     2253 1
    1820    16470    16547 1
    1821      880      544 1
    1822     1866     2481 1
    1823    13118    13385 1
    1824    14589    15103 1
    1825     6322     6575 1
    1826     3589     3641 1
    1827    12694    12943 1
    1828     8363     8822 1
    1829     8086     9249 1
    1830    12727    12941 1
    1831    12971    13599 1
    1832     3002     3231 1
    1833     4301     4639 1
    1834    13672    14273 1
    1835    10317    11456 1
    1836     5198    10939 1
    1837    10902    10976 1
    1838     6501     6509 1
    1839    10157    11182 1
    1840     3345     2396 1
    1841    15656    16551 1
    1842     1561     1378 1
    1843    13691    13894 1
    1844     5723     6646 1
    1845    13869    15383 1
    1846    13052    13361 1
    1847     8716     9330 1
    1848     1148      294 1
    1849    10312    11394 1
    1850    14558    14912 1
    1851     3071     2273 1
    1852    16482    17220 1
    1853     5509     5955 1
    1854    12107    12225 1
    1855    14876    15257 1
    1856    13678    15392 1
    1857     4342     4878 1
    1858    15770    17030 1
    1859     7217     8805 1
    1860    11122    11527 1
    1861    14395    14690 1
    1862    10611    11332 1
    1863    11978    12096 1
    1864    14463    15185 1
    1865     7864     9630 1
    1866      972      761 1
    1867    16526    16730 1
    1868     5628     5994 1
    1869    13205    13627 1
    1870    10853    11199 1
    1871    13907    15307 1
    1872    14221    15138 1
    1873    10168    11086 1
    1874    12230    13592 1
    1875    14476    15121 1
    1876     3917     4704 1
    1877    12653    12825 1
    1878      337     1740 1
    1879     5585     5947 1
    1880     1565      248 1
    1881     2139     2414 1
    1882    14409    14573 1
    1883    14033    14703 1
    1884     7870     9158 1
    1885    14321    14669 1
    1886    12157    12391 1
    1887     2788     2580 1
    1888     3747     3949 1
    1889     6070     6732 1
    1890     7774     9572 1
    1891     4613     5134 1
    1892    11458    11508 1
    1893    14113    15152 1
    1894     5603     6742 1
    1895    15726    17029 1
    1896     3552      545 1
    1897    12193    13295 1
    1898     1011     1696 1
    1899    11162    11503 1
    1900     1143     1419 1
    1901    14290    14707 1
    1902    15783    16827 1
    1903     9198     9284 1
    1904    15748    16878 1
    1905    12186    13437 1
    1906     3215     1902 1
    1907     8033     8602 1
    1908     3021     3339 1
    1909     7552     9589 1
    1910    16578    16811 1
    1911      978     5920 1
    1912     9070     9259 1
    1913    16250    16437 1
    1914    14240    15181 1
    1915     8697     9569 1
    1916     3625     4908 1
    1917    15431    16487 1
    1918     4558     5314 1
    1919     3892     3949 1
    1920    16402    17184 1
    1921    15862    16985 1
    1922    16363    16912 1
    1923    11024    11800 1
    1924     7877     7884 1
    1925     7381     8582 1
    1926    10889    11154 1
    1927      815     1199 1
    1928    11090    11300 1
    1929     6040     6444 1
    1930     7529    14699 1
    1931    15876    17178 1
    1932    13683    14518 1
    1933     8036     8161 1
    1934     7519     8188 1
    1935     3506     2143 1
    1936    13850    14160 1
    1937    16845    16965 1
    1938    14777    15290 1
    1939    13702    14624 1
    1940    11845    13222 1
    1941     4607     4949 1
    1942    15132    15205 1
    1943     2981     3317 1
    1944    10387    10745 1
    1945     2923     2148 1
    1946     3169     2052 1
    1947     4119     4450 1
    1948    11844    12548 1
    1949     3130     2157 1
    1950     5446     6166 1
    1951     7587     8483 1
    1952      912      830 1
    1953     3903     4176 1
    1954     7566     8190 1
    1955    12140    12872 1
    1956    11154    11391 1
    1957     4747     4748 1
    1958     5712     7045 1
    1959     4876     5357 1
    1960     5846     6605 1
    1961     3284     1879 1
    1962     8216     9742 1
    1963    10827    11356 1
    1964     1926     2584 1
    1965      742     1752 1
    1966    11074    11784 1
    1967      938     1294 1
    1968     3829    16102 1
    1969     2026     2724 1
    1970    12436    13163 1
    1971     3205     2089 1
    1972     8232     8407 1
    1973     6001     6568 1
    1974     7222     7259 1
    1975     1228     1500 1
    1976     3623     4037 1
    1977    14526    15044 1
    1978     4139     4528 1
    1979     8966     7993 1
    1980    10789    11183 1
    1981      555     1598 1
    1982    10319    10911 1
    1983      745      645 1
    1984       23      203 1
    1985     6030     6549 1
    1986     3070     1836 1
    1987     5455     6891 1
    1988     4621     4889 1
    1989     1539     1431 1
    1990    16648    16816 1
    1991    12480    13581 1
    1992    13242    13270 1
    1993     8757     9502 1
    1994     4703     5329 1
    1995    15501    15948 1
    1996     1804     1942 1
    1997    12599    12826 1
    1998    12598    13553 1
    1999    14679    15199 1
    2000    10683    11319 1
    2001    11654    11837 1
    2002    10500    11339 1
    2003     2610     2691 1
    2004    12465    13448 1
    2005     1660      242 1
    2006    14658    14731 1
    2007     1321      173 1
    2008     8751     9100 1
    2009     1479     1509 1
    2010    16080    16803 1
    2011    16428    17044 1
    2012    16358    16835 1
    2013     3834     4196 1
    2014    16354    16982 1
    2015    12501    12911 1
    2016    12899    13348 1
    2017       12      472 1
    2018     8207     9463 1
    2019     3692     4880 1
    2020     3272     3470 1
    2021     7268     8607 1
    2022     8859     9162 1
    2023    11843    13096 1
    2024     1020     1314 1
    2025    12535    12925 1
    2026     2111     2416 1
    2027     6036     9140 1
    2028      815     1157 1
    2029    13818    14787 1
    2030     1293      138 1
    2031     2238     2408 1
    2032      988     1064 1
    2033     7673     9548 1
    2034     9753    11794 1
    2035    12265    13079 1
    2036     7291     7859 1
    2037    12666    13510 1
    2038     7829     9471 1
    2039     4998     5143 1
    2040     8692     9632 1
    2041    16475    16880 1
    2042    14496    14800 1
    2043     2930     2068 1
    2044    10914    11216 1
    2045     4665     5288 1
    2046     1884     2685 1
    2047     9434    10013 1
    2048     5888     6693 1
    2049     1531      451 1
    2050     4374     5127 1
    2051     3872     4769 1
    2052     9205     9419 1
    2053     9270     9602 1
    2054    16059    16879 1
    2055     3521     2675 1
    2056    15975    16310 1
    2057     8073     8253 1
    2058     7316     9102 1
    2059     7925     7979 1
    2060     2074     1893 1
    2061     8997     9143 1
    2062    10577    11602 1
    2063     5832     6685 1
    2064     1245      608 1
    2065      831      590 1
    2066    12109    12327 1
    2067     8180     9217 1
    2068     4690     4729 1
    2069     6770     6820 1
    2070     2028     2418 1
    2071     2110     2600 1
    2072    13970    15013 1
    2073     1093     1526 1
    2074     7682     8208 1
    2075     9058     9574 1
    2076     8917     7739 1
    2077    15603    15920 1
    2078    13804    14960 1
    2079    14078    14223 1
    2080    11859    11879 1
    2081    14286    15353 1
    2082     2801     3099 1
    2083     7400     9680 1
    2084     2232     2451 1
    2085     8037     9432 1
    2086     3240     2429 1
    2087     1756      113 1
    2088     3364     2403 1
    2089    13896    14115 1
    2090    10117    10669 1
    2091    14290    14768 1
    2092     5839     6184 1
    2093      911      672 1
    2094    10339    11200 1
    2095    15151    15227 1
    2096     5966     6962 1
    2097     3635     3668 1
    2098     5361     5998 1
    2099       56     1752 1
    2100     7358     7714 1
    2101     7809     8507 1
    2102    10367    11586 1
    2103     2038     2039 1
    2104     3745     4921 1
    2105    14416    15236 1
    2106    15664    17042 1
    2107      691    12396 1
    2108     3047     2290 1
    2109      953     1168 1
    2110     4693     4820 1
    2111    12116    13190 1
    2112     5605     6176 1
    2113     1153      456 1
    2114     8724     9380 1
    2115     7660     8603 1
    2116    14113    14885 1
    2117    13640    14241 1
    2118     3702     4931 1
    2119     7987     8525 1
    2120    15547    16090 1
    2121     7243     7978 1
    2122    10402    11057 1
    2123     7204     9798 1
    2124    14837    14982 1
    2125     1475      481 1
    2126    15449    15935 1
    2127    10816    11808 1
    2128     4259     5082 1
    2129     6037     6072 1
    2130     1570     1342 1
    2131    14375    15389 1
    2132     4175     4833 1
    2133     9442     9568 1
    2134    10924    11715 1
    2135     4601     4884 1
    2136     8409     8699 1
    2137     3302     2736 1
    2138    10426    10710 1
    2139     3355     2073 1
    2140     6488     6861 1
    2141     4331     5223 1
    2142     5448     6458 1
    2143     1021     1209 1
    2144    12470    12885 1
    2145    13675    15217 1
    2146     1111      392 1
    2147     6517     7042 1
    2148    11849    12798 1
    2149     1265     1306 1
    2150    12236    12302 1
    2151     3118     1837 1
    2152    10247    11790 1
    2153     6238     7141 1
    2154     4712     5224 1
    2155    11876    12709 1
    2156     3556     2094 1
    2157      506    12673 1
    2158     3060     3347 1
    2159     5774     6777 1
    2160    11952    12153 1
    2161    15492    16285 1
    2162     5531     7050 1
    2163    12149    13212 1
    2164     2189     2679 1
    2165    10100    10125 1
    2166     6316     6475 1
    2167     8981     9828 1
    2168    13822    14374 1
    2169     1593      242 1
    2170    14527    15269 1
    2171     2508     2563 1
    2172    10599    11293 1
    2173    12325    13360 1
    2174     3741     4190 1
    2175    14267    15089 1
    2176     2911     2515 1
    2177     7867     9452 1
    2178     8976     9902 1
    2179    16366    16897 1
    2180     2413     2588 1
    2181      570     1418 1
    2182     4766     4878 1
    2183     3968     4635 1
    2184    12308    13328 1
    2185    14397    15078 1
    2186     7829     8685 1
    2187    10420    11662 1
    2188     8294     9246 1
    2189    15473    16420 1
    2190     8601     8796 1
    2191     2844     1794 1
    2192    14759    14905 1
    2193     3797     4486 1
    2194     8806     9692 1
    2195     4369     4718 1
    2196     2767     3503 1
    2197     3148     3569 1
    2198    15923    16730 1
    2199     8301     9297 1
    2200     8128     9190 1
    2201     4566     5179 1
    2202     4595     5282 1
    2203    10092    10240 1
    2204    11358    11602 1
    2205     8877     8197 1
    2206     8318     9185 1
    2207    10857    11228 1
    2208     8530     9636 1
    2209     5482     5565 1
    2210    13899    14245 1
    2211    12669    13401 1
    2212    11970    12977 1
    2213     3822     5196 1
    2214     7421     9093 1
    2215    11246    11746 1
    2216     3700     4708 1
    2217      908      208 1
    2218    16119    17222 1
    2219    12838    13254 1
    2220     6342     6560 1
    2221     9961    10046 1
    2222     1029     1359 1
    2223    10795    11369 1
    2224    10087    10797 1
    2225    12151    13049 1
    2226     4267     2460 1
    2227    12623    13544 1
    2228    15724    16707 1
    2229     8346     8655 1
    2230     2998     3165 1
    2231    16276    16679 1
    2232    14359    15041 1
    2233     8289     9181 1
    2234      618     1411 1
    2235     3090     3403 1
    2236     7355     8531 1
    2237    12459    12834 1
    2238     2293     2618 1
    2239     7955     9124 1
    2240     5393     6191 1
    2241     1057      378 1
    2242     4725     4506 1
    2243    11897    13263 1
    2244     3756    16387 1
    2245    15900    16842 1
    2246    10236    10893 1
    2247     3653     4500 1
    2248     7180     7210 1
    2249     3304     2462 1
    2250     5462     6503 1
    2251      939      990 1
    2252     4173     4596 1
    2253     3330     2711 1
    2254     2781     2035 1
    2255     8744     9671 1
    2256    11875    12584 1
    2257    12643    13134 1
    2258    12885    13603 1
    2259     9092     9331 1
    2260     2959     2602 1
    2261     4393     2526 1
    2262      769     1285 1
    2263     7502     8040 1
    2264     4153     4752 1
    2265    15568    15758 1
    2266    12298    13028 1
    2267     1460      318 1
    2268     6439     7095 1
    2269    15439    15648 1
    2270     4554     4894 1
    2271     1884     2721 1
    2272    12601    13509 1
    2273     1895     2641 1
    2274    14262    14833 1
    2275    11066    11333 1
    2276    16188    16352 1
    2277     6284     6808 1
    2278     3680     5250 1
    2279     6086     6672 1
    2280     4638     4492 1
    2281    15465    16553 1
    2282     5177     5218 1
    2283     8883     7427 1
    2284    15643    15941 1
    2285     7870     8193 1
    2286    17151    17214 1
    2287     4722     4471 1
    2288     7545     9803 1
    2289     7463     9448 1
    2290    14338    15196 1
    2291     9516     9626 1
    2292    10656    10841 1
    2293     8945     7908 1
    2294    12184    12916 1
    2295    10230    11012 1
    2296    15596    16061 1
    2297     4044     5312 1
    2298     7748     8449 1
    2299     8812     9562 1
    2300    16754    17010 1
    2301     1220      160 1
    2302     3184     2570 1
    2303    12218    12316 1
    2304    16224    16458 1
    2305     3473     2031 1
    2306    16289    17168 1
    2307    15964    16710 1
    2308    15557    16257 1
    2309    11273    11300 1
    2310     7550     7580 1
    2311     4130     5168 1
    2312     4130     4418 1
    2313     5657     6635 1
    2314     6587     6685 1
    2315    13952    14680 1
    2316    15006    15014 1
    2317     3484     2397 1
    2318     5965     6382 1
    2319    10550    10711 1
    2320     8085     9752 1
    2321    11407    11838 1
    2322     3054     1981 1
    2323     9342     9463 1
    2324    13862    14691 1
    2325    13083    13631 1
    2326     4560     5222 1
    2327    14086    14148 1
    2328    12636    12738 1
    2329    12395    13157 1
    2330    16217    17203 1
    2331    12681    13354 1
    2332     5395     5547 1
    2333     3691     5148 1
    2334     7785     9153 1
    2335    10953    11203 1
    2336     2947     3452 1
    2337     7285     7789 1
    2338     9374    10040 1
    2339      468     1745 1
    2340    12462    12944 1
    2341    10250    10868 1
    2342    11427    11786 1
    2343     2191     2456 1
    2344    10414    10778 1
    2345    16631    16966 1
    2346    10190    11378 1
    2347     2404     2595 1
    2348     8846     9598 1
    2349     5785     5917 1
    2350     4140     4695 1
    2351     3419     3497 1
    2352    15865    16972 1
    2353     5665     7091 1
    2354    16158    16744 1
    2355    10340    16040 1
    2356    11895    13468 1
    2357     2913     3101 1
    2358     3673     4663 1
    2359    12192    13359 1
    2360     8992     7181 1
    2361      979      895 1
    2362    14675    14722 1
    2363      142     6051 1
    2364     7387     8333 1
    2365       97     1728 1
    2366    13770    13967 1
    2367     3489     2080 1
    2368    11051    11688 1
    2369    16741    17188 1
    2370      309     1768 1
    2371     6913     7091 1
    2372     5802     6012 1
    2373    15763    15866 1
    2374     8014     8335 1
    2375    15512    16238 1
    2376     3481     1973 1
    2377      558    12816 1
    2378     7553     9161 1
    2379     3653     4578 1
    2380    12860    13574 1
    2381     1098      220 1
    2382     8461     9177 1
    2383      926      199 1
    2384      516      457 1
    2385    10130    10817 1
    2386    12553    13258 1
    2387     7339     9702 1
    2388    15989    16695 1
    2389     4264    16015 1
    2390    12273    13118 1
    2391      766     1236 1
    2392     8191     8374 1
    2393     3700     5155 1
    2394     9272     9970 1
    2395    13739    15372 1
    2396     6240     6994 1
    2397     7453     7929 1
    2398    11981    12503 1
    2399    13469    13491 1
    2400    14696    14899 1
    2401    11075    11263 1
    2402     6974    12004 1
    2403     7438     8699 1
    2404      550     4673 1
    2405       35     1028 1
    2406     8997     9091 1
    2407    15565    16267 1
    2408     5787     6451 1
    2409    13237    13480 1
    2410    14666    14916 1
    2411     4270     4459 1
    2412     5607     5944 1
    2413     4372     5240 1
    2414     7451     9284 1
    2415    10588    10602 1
    2416     8982     9530 1
    2417     4329     4422 1
    2418    15955    16984 1
    2419     5770     6879 1
    2420    13715    14550 1
    2421     3216     2462 1
    2422    11997    12877 1
    2423      473      241 1
    2424     8976    10605 1
    2425    14800    15252 1
    2426     2935     1977 1
    2427     2941     2533 1
    2428    12329    12933 1
    2429     6416     6669 1
    2430       92     1273 1
    2431     5707     5970 1
    2432      350      224 1
    2433      887      571 1
    2434     8213     9536 1
    2435     6239     7001 1
    2436     7210     9851 1
    2437    10528    11234 1
    2438    11898    12348 1
    2439     7812     8849 1
    2440     1053      445 1
    2441     8986     7811 1
    2442     4378     5184 1
    2443     1092      146 1
    2444     8853     9302 1
    2445     3824     5156 1
    2446    12170    12508 1
    2447    10373    10614 1
    2448    15396    15407 1
    2449     6305     6592 1
    2450    15698    16227 1
    2451    12641    13243 1
    2452    12391    12406 1
    2453    14459    14569 1
    2454     3207     2743 1
    2455    15999    17015 1
    2456    15878    16070 1
    2457     5512     6101 1
    2458    12811    13590 1
    2459       22      112 1
    2460     2762     3251 1
    2461    14695    15109 1
    2462     5895     5909 1
    2463    14335    15054 1
    2464     8761     9819 1
    2465     3143     3183 1
    2466     2486     2535 1
    2467    13956    14453 1
    2468     5647    12451 1
    2469     1800     2387 1
    2470     8694     9701 1
    2471     3936     4712 1
    2472     1116    11911 1
    2473      168      279 1
    2474     4172     4990 1
    2475    11271    11522 1
    2476     3735     4051 1
    2477    15926    17199 1
    2478    12734    13577 1
    2479    12153    13612 1
    2480    11575    11627 1
    2481     2914     2441 1
    2482     3018     2576 1
    2483     6993     7060 1
    2484    13664    14373 1
    2485    15514    17124 1
    2486      858     1585 1
    2487    12083    12927 1
    2488     8027     9964 1
    2489    15745    15965 1
    2490    12226    12408 1
    2491     3674     4710 1
    2492    10339    11378 1
    2493    14200    15216 1
    2494    15624    16704 1
    2495    16125    16969 1
    2496    12050    12246 1
    2497     5771     6086 1
    2498     1160      190 1
    2499     8548     9788 1
    2500     6239     6510 1
    2501     7624     9526 1
    2502    14697    14925 1
    2503      954     1372 1
    2504    12000    13216 1
    2505     6035     6230 1
    2506     3781     5225 1
    2507    13843    14613 1
    2508     6246     6890 1
    2509    12239    13057 1
    2510    16134    16324 1
    2511    14060    15312 1
    2512     4308     5193 1
    2513    15748    15785 1
    2514     8749     9257 1
    2515      531     1412 1
    2516     5561     5761 1
    2517     7697     7757 1
    2518     7739     8005 1
    2519     7902     8537 1
    2520    10784    11684 1
    2521     8955     2580 1
    2522    15913    16950 1
    2523    10140    11285 1
    2524     4446     4565 1
    2525    13882    13902 1
    2526    11244    11274 1
    2527    10839    11652 1
    2528     7762     9489 1
    2529    10523    11798 1
    2530    10527    11792 1
    2531    15592    17045 1
    2532     3153     3161 1
    2533     3426     2613 1
    2534     1179      578 1
    2535     4013     4225 1
    2536    12109    12180 1
    2537     3004     3032 1
    2538    10236    11280 1
    2539    15666    17076 1
    2540     2189     2578 1
    2541     4293     5269 1
    2542     4183    15713 1
    2543     5396     6482 1
    2544     7981     8035 1
    2545      802     1557 1
    2546     4382     4888 1
    2547     4173     4545 1
    2548    16625    17115 1
    2549    13633    14376 1
    2550     6078     6821 1
    2551     2962     1953 1
    2552    14379    15123 1
    2553    10600    10940 1
    2554     7529     8160 1
    2555     7481     9226 1
    2556     1068      364 1
    2557     7607     8078 1
    2558     8056     9811 1
    2559     1012     1415 1
    2560    14571    15109 1
    2561     5688     8424 1
    2562    13825    14052 1
    2563     8552     9159 1
    2564    15442    15494 1
    2565     3761     5239 1
    2566     3857     4901 1
    2567    13833    13960 1
    2568     3887     5272 1
    2569     3812    11117 1
    2570     9033     9527 1
    2571    11931    13530 1
    2572     5791     6910 1
    2573    12207    12981 1
    2574     8049     9995 1
    2575     2792     3482 1
    2576     4052     4921 1
    2577    15705    16248 1
    2578    12691    13313 1
    2579    15550    15646 1
    2580     3320     1829 1
    2581    10390    10494 1
    2582    10794    15665 1
    2583    15890    16003 1
    2584     4113     4383 1
    2585    12700    13004 1
    2586    10330    10559 1
    2587    16124    16788 1
    2588     6410     6665 1
    2589    12582    13159 1
    2590    11944    13345 1
    2591     4086     4222 1
    2592    11949    13522 1
    2593    12266    12296 1
    2594     3248     2543 1
    2595      368      404 1
    2596    15516    16812 1
    2597    11179    11580 1
    2598    15505    16361 1
    2599     3580     4633 1
    2600    13898    14121 1
    2601      329      257 1
    2602    13368    13432 1
    2603     6086     6242 1
    2604    13974    14367 1
    2605    13537    13586 1
    2606     3192     2476 1
    2607     8327    10016 1
    2608    11693    11779 1
    2609    11997    12649 1
    2610     4291     4615 1
    2611     5178    16631 1
    2612    15499    16827 1
    2613     5719     7049 1
    2614     7957     9511 1
    2615    10882    11540 1
    2616     3616     4382 1
    2617     2804     2623 1
    2618     6853     6952 1
    2619    14876    15382 1
    2620     7776     8015 1
    2621     6101     6457 1
    2622     6360     7003 1
    2623    14727    16141 1
    2624    10103    10248 1
    2625     7109    11650 1
    2626    16083    16857 1
    2627    16333    16404 1
    2628     3574     3795 1
    2629    15587    15938 1
    2630    12669    13520 1
    2631    16203    16242 1
    2632     6022     6284 1
    2633     7601     8268 1
    2634     6434     7154 1
    2635     7605     7689 1
    2636    10380    10873 1
    2637    14270    14881 1
    2638     5402     6280 1
    2639     3717     5300 1
    2640    15885    16587 1
    2641    13972    14147 1
    2642     8531     9861 1
    2643     7442     9786 1
    2644     6638     6926 1
    2645     3886     4307 1
    2646    13813    15114 1
    2647     1336      345 1
    2648     9756    11418 1
    2649    15638    16489 1
    2650    12548    13327 1
    2651      398      415 1
    2652     3824     4326 1
    2653    13650    14294 1
    2654    15621    15850 1
    2655     4327     5281 1
    2656     3597     5062 1
    2657     3363     1902 1
    2658     8539     9823 1
    2659     8331     8391 1
    2660    14044    15050 1
    2661      900      395 1
    2662     8205     9948 1
    2663    12042    12428 1
    2664      845     1159 1
    2665     1607      198 1
    2666     2094     2649 1
    2667     9013     9595 1
    2668     3271     2529 1
    2669     5968     6530 1
    2670     4616     5333 1
    2671     8347     9563 1
    2672    13939    14846 1
    2673    14041    14358 1
    2674     7664     9652 1
    2675     2888     2234 1
    2676    10275    11506 1
    2677    14000    14884 1
    2678    13968    14974 1
    2679     3532     2253 1
    2680    12251    15777 1
    2681     9390     9619 1
    2682     8323     9861 1
    2683    10366    10452 1
    2684    14791    15319 1
    2685     4429     5304 1
    2686     7586     7992 1
    2687     7602     9507 1
    2688     6274     6544 1
    2689     4192     5134 1
    2690    13251    13375 1
    2691    15951    16689 1
    2692     7461     9758 1
    2693    10408    10686 1
    2694    10582    10788 1
    2695    11924    12355 1
    2696     3440     2280 1
    2697    16736    16947 1
    2698    11921    12717 1
    2699    12044    12243 1
    2700    12487    12939 1
    2701     1720      231 1
    2702    14194    14554 1
    2703     3559    15272 1
    2704    14941    15015 1
    2705     6576     6744 1
    2706     2168     2140 1
    2707    10854    16520 1
    2708    12282    13123 1
    2709     1036      391 1
    2710      634      186 1
    2711     6210     6835 1
    2712    16234    16376 1
    2713     7315     8826 1
    2714     7890     9973 1
    2715    14077    15378 1
    2716    14781    15056 1
    2717    11879    13500 1
    2718     9371    10051 1
    2719    13824    14789 1
    2720     2808     2574 1
    2721     1847     1879 1
    2722    14812    15236 1
    2723     6375     7007 1
    2724    13735    15358 1
    2725    13785    14556 1
    2726    14440    14963 1
    2727    13776    14630 1
    2728    12793    13310 1
    2729     7670     9239 1
    2730    13877    15112 1
    2731    15743    16442 1
    2732     7967     9145 1
    2733     7984     8665 1
    2734     7889     7946 1
    2735     5893     6776 1
    2736     6507     7041 1
    2737    14368    14750 1
    2738     1047      286 1
    2739     7640     9137 1
    2740    10303    11678 1
    2741     5560     7003 1
    2742     3014     2352 1
    2743    12052    13498 1
    2744     2831     2727 1
    2745     2944     3020 1
    2746    14680    15081 1
    2747     1276      430 1
    2748    12219    13267 1
    2749     7300     9696 1
    2750    14394    14467 1
    2751     3586     3794 1
    2752    14898    15061 1
    2753    14377    14590 1
    2754     3565     2004 1
    2755     5740     7127 1
    2756    16033    16726 1
    2757     5468     5650 1
    2758     7208     7246 1
    2759    16254    17153 1
    2760    14804    15408 1
    2761    13929    14669 1
    2762     5435     5721 1
    2763     5724     6299 1
    2764    10090    11083 1
    2765     2167     2105 1
    2766    15699    16243 1
    2767     1099     1339 1
    2768     2881     2428 1
    2769     4723     5055 1
    2770    13905    14727 1
    2771    14214    14446 1
    2772    10941    11578 1
    2773     3504     2253 1
    2774     3942     4778 1
    2775       82     1405 1
    2776    10569    11405 1
    2777    15036    15113 1
    2778     1233      684 1
    2779    10609    16123 1
    2780     6980     7000 1
    2781    15791    16963 1
    2782     8014     9978 1
    2783    14368    15259 1
    2784      965      805 1
    2785    12155    12883 1
    2786    10207    10973 1
    2787      325      478 1
    2788     5973     7064 1
    2789    15968    17030 1
    2790     3898     4757 1
    2791     6243     8265 1
    2792    16226    16668 1
    2793      934      824 1
    2794     8152     8845 1
    2795    10385    10657 1
    2796     6729     6998 1
    2797     7689     7919 1
    2798    15690    17123 1
    2799      612      614 1
    2800     8671     9097 1
    2801    10199    11630 1
    2802     3596     4415 1
    2803     4745     5147 1
    2804     5977     6917 1
    2805     5413     6395 1
    2806     5911     5926 1
    2807     7131    10600 1
    2808    11967    13601 1
    2809     4292     4684 1
    2810     8380    10009 1
    2811     2251     2323 1
    2812     6280     7074 1
    2813     9029     7309 1
    2814    13918    15345 1
    2815     9465     9479 1
    2816    10674    10749 1
    2817    11773    11790 1
    2818    15440    15887 1
    2819     4321     4846 1
    2820     9546     9858 1
    2821    14284    14353 1
    2822     3531     2547 1
    2823     6741     6971 1
    2824     8861    10036 1
    2825    10746    11359 1
    2826    12655    13611 1
    2827    13662    13795 1
    2828     7025     7095 1
    2829     8172     9075 1
    2830     3604     3737 1
    2831    14088    16525 1
    2832     7720     9873 1
    2833     8953     9848 1
    2834    16377    17057 1
    2835    14032    14468 1
    2836    14723    15256 1
    2837    16067    16891 1
    2838    14269    14533 1
    2839      921      153 1
    2840     1615      341 1
    2841    11414    11558 1
    2842     6483     6629 1
    2843     7388     9625 1
    2844     5409     6697 1
    2845     6689     7076 1
    2846       25     1311 1
    2847     1311      316 1
    2848      763      117 1
    2849     1972     2568 1
    2850    14833    14842 1
    2851    10873    11748 1
    2852    12665    13365 1
    2853     7452     8391 1
    2854    11183    11795 1
    2855     5969     6909 1
    2856     3811    16516 1
    2857     3190     1867 1
    2858     1641     1354 1
    2859     8161     8839 1
    2860    15759    15948 1
    2861    12859    13247 1
    2862     7156     8394 1
    2863     2067     2117 1
    2864     7166     7428 1
    2865    10481    10933 1
    2866     4157     4293 1
    2867     5752     6729 1
    2868    13100    13222 1
    2869    10301    11738 1
    2870    15707    15801 1
    2871     2437     2541 1
    2872    10898    11213 1
    2873       84      223 1
    2874    12600    12691 1
    2875     3989     5123 1
    2876     6849     9194 1
    2877    14124    14911 1
    2878     8140     8536 1
    2879    14869    14953 1
    2880     5375     6519 1
    2881     9632     9841 1
    2882     1109      499 1
    2883    13248    13408 1
    2884    10165    11242 1
    2885     3146     2394 1
    2886    12581    13129 1
    2887     2175     2650 1
    2888     1122     1250 1
    2889     8818     9416 1
    2890    15583    16810 1
    2891     4214     5348 1
    2892     7319     7650 1
    2893    14581    14965 1
    2894    10379    11326 1
    2895    15746    16718 1
    2896     7268     7982 1
    2897     4001     5246 1
    2898    15550    17195 1
    2899     3533     2023 1
    2900    10435    10694 1
    2901    16104    16341 1
    2902     8194     9456 1
    2903     4767     5285 1
    2904    10401    11027 1
    2905    12536    13586 1
    2906    10893    11477 1
    2907     7959     9203 1
    2908     2793     2696 1
    2909    10861    11018 1
    2910     2216     2717 1
    2911    15737    17206 1
    2912     8997     9765 1
    2913     4770     5104 1
    2914    11481    11755 1
    2915    13719    14025 1
    2916     6478     6884 1
    2917     2835     3104 1
    2918     3722     4959 1
    2919    12325    13088 1
    2920    14507    14982 1
    2921    11078    11113 1
    2922    16728    16931 1
    2923     2094     2522 1
    2924    12277    13568 1
    2925    14205    15321 1
    2926    12889    13523 1
    2927    13984    14841 1
    2928     3924     5249 1
    2929     4138     4226 1
    2930     8972     8151 1
    2931    15967    17068 1
    2932     4163     5250 1
    2933     5003     5029 1
    2934     4736     5236 1
    2935     8181     8787 1
    2936     1771    13479 1
    2937    15650    16240 1
    2938     6033     6297 1
    2939     7160     9699 1
    2940     2094     1894 1
    2941     8374     9086 1
    2942     6403     6927 1
    2943     1481      387 1
    2944     9071     9584 1
    2945      941      530 1
    2946     2863     3126 1
    2947     8835     9356 1
    2948     2752     2543 1
    2949     5401     6945 1
    2950    12387    15402 1
    2951     3386     2671 1
    2952     4266     4681 1
    2953    10640    10866 1
    2954    14428    14872 1
    2955    10911    11544 1
    2956     6124    10259 1
    2957     3561     2286 1
    2958     7500     9128 1
    2959     1999     2117 1
    2960     8198     8630 1
    2961     3660     3702 1
    2962    11042    11375 1
    2963     2494     2649 1
    2964     3892     4958 1
    2965     2285     2374 1
    2966     6612     6695 1
    2967     5660     6077 1
    2968    11065    11747 1
    2969     4843     5225 1
    2970    14330    14524 1
    2971    14326    14746 1
    2972    14700    14704 1
    2973    12224    13288 1
    2974    12144    12560 1
    2975    16742    16932 1
    2976    15870    17170 1
    2977     4404    10561 1
    2978     9200     9554 1
    2979      930     1519 1
    2980      924      849 1
    2981     8886    10048 1
    2982    14068    15194 1
    2983     3987     5005 1
    2984    13970    15424 1
    2985    11901    12942 1
    2986     9017     8254 1
    2987    12696    13019 1
    2988     4018     5314 1
    2989    11917    13090 1
    2990     8186     9381 1
    2991       72     1248 1
    2992     4191     4579 1
    2993    15461    15490 1
    2994     4420     5042 1
    2995      943      435 1
    2996     9693     9888 1
    2997    12389    12500 1
    2998     3293     1882 1
    2999     3374     3436 1
    3000    16285    16899 1
    3001     5585     5801 1
    3002    15790    15966 1
    3003    14642    15037 1
    3004    16341    16380 1
    3005     7288     7751 1
    3006     2944     1833 1
    3007     4321     4768 1
    3008    10748    11139 1
    3009     5526     6660 1
    3010     1054     1249 1
    3011     2848     1908 1
    3012    10194    11314 1
    3013     4092     4683 1
    3014    14110    14985 1
    3015    12026    13321 1
    3016     3069    14958 1
    3017    10260    10459 1
    3018     4132     4957 1
    3019    16189    17103 1
    3020    12015    13261 1
    3021    16416    16755 1
    3022       75      360 1
    3023     6051     6847 1
    3024    10945    11452 1
    3025    13692    14975 1
    3026    15137    17179 1
    3027    14625    15378 1
    3028    13678    14624 1
    3029     8147     8722 1
    3030     8467     9997 1
    3031    13933    14834 1
    3032    10712    11106 1
    3033     5880     6335 1
    3034     8906     9258 1
    3035     7775     8022 1
    3036     5529     5976 1
    3037     3946     4045 1
    3038    15779    16539 1
    3039     4620     4888 1
    3040    14336    14385 1
    3041     8460     8755 1
    3042     3306     1830 1
    3043    16573    16581 1
    3044    10420    10564 1
    3045    11861    13373 1
    3046     8339     8524 1
    3047     5884     5955 1
    3048     7226     8479 1
    3049     3835     4172 1
    3050     4965     5340 1
    3051    10333    10872 1
    3052     4867     5069 1
    3053     5949     7046 1
    3054     3985     4494 1
    3055     1644      338 1
    3056     1566     1406 1
    3057     8519     9979 1
    3058    12615    13230 1
    3059    15802    16917 1
    3060     9009     7251 1
    3061     3193     1932 1
    3062    10541    11147 1
    3063    15478    15872 1
    3064     3767     5024 1
    3065    10623    11282 1
    3066    10688    11642 1
    3067    10321    10690 1
    3068      767      298 1
    3069    13994    14777 1
    3070    15167    15287 1
    3071    12566    13560 1
    3072     6216    11240 1
    3073     2506     2743 1
    3074     5365     6422 1
    3075       74     1726 1
    3076     2267     1908 1
    3077     4102     4304 1
    3078     3646     4710 1
    3079    14343    15315 1
    3080      999     1567 1
    3081     4171     4855 1
    3082     8139     9874 1
    3083     6064     6112 1
    3084     8300     8814 1
    3085     7242     7809 1
    3086    13772    16398 1
    3087     5850     6649 1
    3088    12859    13445 1
    3089     7411     9104 1
    3090    11955    13047 1
    3091      866      588 1
    3092    11308    11664 1
    3093        8      290 1
    3094    10367    10687 1
    3095     8221     8261 1
    3096     8097     8736 1
    3097    11271    11500 1
    3098     2093     1797 1
    3099    15701    16522 1
    3100    14157    14407 1
    3101     7435     8447 1
    3102    12375    12389 1
    3103     8564     9560 1
    3104     2995     3188 1
    3105     5565     5823 1
    3106    15431    16998 1
    3107    10156    11554 1
    3108     3072     2520 1
    3109     1918     2566 1
    3110    14272    14806 1
    3111    13876    14215 1
    3112     1347     1390 1
    3113    10650    11322 1
    3114      904      392 1
    3115     9441     9608 1
    3116    11961    13171 1
    3117      841      487 1
    3118     6580     6645 1
    3119     4301     4645 1
    3120    15761    17220 1
    3121     5641     5733 1
    3122     5940     6284 1
    3123     1769     1920 1
    3124     5537    11751 1
    3125    11992    12437 1
    3126    14348    14910 1
    3127      955      586 1
    3128    11871    12149 1
    3129     2904     3042 1
    3130    15993    16349 1
    3131    13686    14671 1
    3132    12303    12937 1
    3133    10286    10676 1
    3134    13846    14882 1
    3135     9541     9900 1
    3136    14059    14481 1
    3137    16884    16901 1
    3138     4078     5303 1
    3139     7288     9494 1
    3140     2776     2787 1
    3141     8573     9092 1
    3142    14195    14594 1
    3143     2936     2716 1
    3144    13680    13683 1
    3145       10      377 1
    3146     7306     7647 1
    3147     5397     5599 1
    3148    16017    16721 1
    3149     8351     9435 1
    3150     9321     9447 1
    3151     8844     9926 1
    3152     1350      297 1
    3153     3105     2339 1
    3154     3755     4411 1
    3155    12131    13279 1
    3156    10150    11224 1
    3157     5997     6302 1
    3158    10323    10586 1
    3159     4108     4849 1
    3160     7936     9319 1
    3161     7601     9554 1
    3162    10614    11293 1
    3163     2283     2352 1
    3164     1026      174 1
    3165     1414      423 1
    3166      639      448 1
    3167     7384     9462 1
    3168     2475    13774 1
    3169    12020    12757 1
    3170     5563     5690 1
    3171    10796    11247 1
    3172      580      647 1
    3173     3850     3967 1
    3174     3934     5217 1
    3175     7871     8045 1
    3176    12452    12683 1
    3177    15857    16849 1
    3178     4351     4572 1
    3179    12116    12715 1
    3180    13132    13250 1
    3181    15804    16008 1
    3182     3610     4955 1
    3183    10296    11711 1
    3184     4733     4762 1
    3185    11471    11490 1
    3186    13295    15362 1
    3187    13374    13624 1
    3188     7620     9612 1
    3189     3266     2475 1
    3190    15707    16099 1
    3191    14376    16253 1
    3192    12430    13346 1
    3193     7393     7400 1
    3194      881     1148 1
    3195     1278     1299 1
    3196     1033      808 1
    3197     3163     2026 1
    3198     7670     7679 1
    3199     8892     9210 1
    3200    16462    16745 1
    3201     3866     5255 1
    3202    16379    17201 1
    3203    13894    14449 1
    3204     7987     8538 1
    3205      793      663 1
    3206     4097     5121 1
    3207     4689     5091 1
    3208     9314     9601 1
    3209     4493     5119 1
    3210     9632    10043 1
    3211     2983     3461 1
    3212    14139    14473 1
    3213     4952     5131 1
    3214    13683    14972 1
    3215    10619    11011 1
    3216     3505     1800 1
    3217     8615     9395 1
    3218     7194     9701 1
    3219    16598    16989 1
    3220    10245    10669 1
    3221     2763     2982 1
    3222    12488    13299 1
    3223    10427    11397 1
    3224     5535     5739 1
    3225     9135     9443 1
    3226    10466    10782 1
    3227     1342      418 1
    3228     8107     8454 1
    3229    15551    15921 1
    3230     7552     7797 1
    3231    14178    14289 1
    3232    13008    13614 1
    3233     2453     7559 1
    3234     7647     9943 1
    3235     5496     6388 1
    3236     9102    10018 1
    3237     5362     6098 1
    3238    14546    14585 1
    3239    10060    10495 1
    3240     5794     7093 1
    3241     1980     2594 1
    3242     9777    10031 1
    3243     4257     4807 1
    3244    11182    11549 1
    3245     2943     2625 1
    3246     7715     8808 1
    3247    13897    13984 1
    3248    10157    11219 1
    3249       57     1512 1
    3250    14639    15048 1
    3251    15552    16840 1
    3252    11199    11726 1
    3253     4022     4948 1
    3254    11399    11442 1
    3255     3194     3316 1
    3256    13927    15218 1
    3257     9002     9880 1
    3258     5528     7000 1
    3259     8517     9762 1
    3260     7417     9930 1
    3261     7655     8012 1
    3262     8655     9514 1
    3263    12213    13087 1
    3264    16379    16693 1
    3265     5819     5878 1
    3266     3652     4082 1
    3267    13968    15377 1
    3268    16295    16751 1
    3269    12462    12655 1
    3270    10516    11151 1
    3271     3122     2559 1
    3272    12384    13341 1
    3273     9247     9281 1
    3274    12701    13003 1
    3275     5360     6065 1
    3276    11486    11611 1
    3277     1627      181 1
    3278    15651    16017 1
    3279    10464    10808 1
    3280     7536     8210 1
    3281     3530     2477 1
    3282    12882    13406 1
    3283     5481     6018 1
    3284    15720    17145 1
    3285     8747     9200 1
    3286     8893     9619 1
    3287     3445     3514 1
    3288     2956     3362 1
    3289     3089     2552 1
    3290    14276    14796 1
    3291    11913    12770 1
    3292     7891     8797 1
    3293     3938     4438 1
    3294    10815    11705 1
    3295    13009    13068 1
    3296    11710    11780 1
    3297    14068    14854 1
    3298     6067     6730 1
    3299    12222    13603 1
    3300    10988    11516 1
    3301     7534     8715 1
    3302     3479     2557 1
    3303     2043     2564 1
    3304     5770     6590 1
    3305     3702     3768 1
    3306     8735     9277 1
    3307     1451      194 1
    3308     8790     9840 1
    3309    16011    16571 1
    3310      614      191 1
    3311     7624     9767 1
    3312       90      122 1
    3313     7945     8488 1
    3314    14344    14504 1
    3315     8979     9340 1
    3316    10770    11410 1
    3317    12732    13183 1
    3318    14619    14836 1
    3319     1249      390 1
    3320     3821     5135 1
    3321    10581    11381 1
    3322     7664     8204 1
    3323     5451     7088 1
    3324    11557    11607 1
    3325     5981     6208 1
    3326     1245      371 1
    3327     7633     8169 1
    3328     7413     9566 1
    3329     7934     8323 1
    3330    11109    11302 1
    3331     5977     6775 1
    3332     5995     6822 1
    3333     6050     6147 1
    3334    10436    11498 1
    3335     2908     1512 1
    3336    12500    13614 1
    3337     4231     5233 1
    3338    10287    11534 1
    3339    10065    11416 1
    3340     4232     5250 1
    3341     2454     2632 1
    3342    12268    12719 1
    3343    13953    14230 1
    3344       31      202 1
    3345    10219    11181 1
    3346     7633     8374 1
    3347    13806    14685 1
    3348    15469    16151 1
    3349    12641    12847 1
    3350    14426    14663 1
    3351    16348    16525 1
    3352     4118     4823 1
    3353    10137    11316 1
    3354     4341     4354 1
    3355     8875     7375 1
    3356     2053     2398 1
    3357      902      558 1
    3358     4013     4946 1
    3359    10670    11093 1
    3360    15772    17169 1
    3361     6015     6456 1
    3362     7687     8156 1
    3363     8082     8850 1
    3364     6580     6834 1
    3365    15782    16637 1
    3366     6370     7062 1
    3367    10673    11047 1
    3368     7879     9957 1
    3369     7703     9671 1
    3370    10989    11206 1
    3371     5533     6710 1
    3372     4810     5125 1
    3373     7973     8013 1
    3374     2309     2646 1
    3375    14669    14927 1
    3376    12411    12930 1
    3377    12427    13128 1
    3378    12772    13321 1
    3379    10649    11002 1
    3380    10969    11066 1
    3381    10710    10816 1
    3382     8296     9618 1
    3383     7443     8209 1
    3384     5494     5708 1
    3385    13019    13169 1
    3386     8313     9863 1
    3387    16166    16190 1
    3388    13673    14636 1
    3389     4781     4842 1
    3390    12164    12494 1
    3391    13682    15103 1
    3392     6246     6461 1
    3393     1115      512 1
    3394     7797     9369 1
    3395    10311    10384 1
    3396     9182     9462 1
    3397    11988    12835 1
    3398     2584     2725 1
    3399    15797    17196 1
    3400     8561     8684 1
    3401     7551     8688 1
    3402    10294    11141 1
    3403     2961     1968 1
    3404    15739    16475 1
    3405     4172     4669 1
    3406    14710    14909 1
    3407     5878     7027 1
    3408    11946    13564 1
    3409    11889    12829 1
    3410     2760     2523 1
    3411     4989     5188 1
    3412     8214     8722 1
    3413     9329     9681 1
    3414     3212     3536 1
    3415     7808     8477 1
    3416    13812    14115 1
    3417     8260     8686 1
    3418     8797     9901 1
    3419     1019     1603 1
    3420    12172    12409 1
    3421    14419    14838 1
    3422     8360     8748 1
    3423     6479     6518 1
    3424    10702    11697 1
    3425    16211    16434 1
    3426     3771     5177 1
    3427    10457    10887 1
    3428     6312     6530 1
    3429    10132    10553 1
    3430      577     1547 1
    3431     9653     9854 1
    3432     8887     7571 1
    3433    10502    10916 1
    3434     6686     6932 1
    3435    14961    15204 1
    3436     2878     2085 1
    3437    12194    13536 1
    3438      798     6449 1
    3439     8129     8799 1
    3440     7782     9737 1
    3441     7300     9542 1
    3442     1102      648 1
    3443    16143    17115 1
    3444    16118    16131 1
    3445     9041     8289 1
    3446    10084    11805 1
    3447     4573     4984 1
    3448     2900     3451 1
    3449     6165     6401 1
    3450     1241     5056 1
    3451     3135     2082 1
    3452      574      152 1
    3453     2475    14185 1
    3454    12323    13188 1
    3455     7520     8793 1
    3456     3666     3681 1
    3457     4632     4860 1
    3458     2177     2683 1
    3459    15046    15167 1
    3460        2      743 1
    3461    14393    15243 1
    3462    12952    13614 1
    3463    12138    12990 1
    3464    16047    17112 1
    3465     1028      561 1
    3466     8689     9916 1
    3467     7993     9431 1
    3468     6719     7150 1
    3469     7325     7656 1
    3470    15519    16708 1
    3471    15777    16887 1
    3472     1562     1671 1
    3473    14294    14561 1
    3474     5489     6721 1
    3475    11905    12455 1
    3476     4518     5337 1
    3477    12189    13186 1
    3478     3072     3137 1
    3479     2014     1868 1
    3480     3789     4817 1
    3481     6234     6319 1
    3482     5368     5669 1
    3483     3373     2745 1
    3484    10631    11485 1
    3485     8994     7354 1
    3486      848      555 1
    3487     3691     4904 1
    3488     4664     5192 1
    3489      990     1306 1
    3490     3597     4649 1
    3491      488     1366 1
    3492    11957    13599 1
    3493    16084    16153 1
    3494     3267     2444 1
    3495     4181     5304 1
    3496     4299     4977 1
    3497    13709    14644 1
    3498     3335     2309 1
    3499    16144    16970 1
    3500    12686    17177 1
    3501     7480     8449 1
    3502     5927     5944 1
    3503     3676     4738 1
    3504     3501     2437 1
    3505    13698    13823 1
    3506    13771    14937 1
    3507     2979     2414 1
    3508     7406     7414 1
    3509     7627     9884 1
    3510    10726    11241 1
    3511    13990    14354 1
    3512     8641     9409 1
    3513    10436    10627 1
    3514     5476     6614 1
    3515     4126     4691 1
    3516      626      436 1
    3517    12893    13161 1
    3518     4823     4906 1
    3519    15495    15877 1
    3520    10244    11214 1
    3521    12333    12873 1
    3522     5450     5791 1
    3523    14038    14470 1
    3524    14547    14834 1
    3525     3732     3938 1
    3526     8922     9988 1
    3527    11349    11374 1
    3528     1861     2542 1
    3529    14420    14706 1
    3530      719      500 1
    3531      520      116 1
    3532    14538    15313 1
    3533    15573    16454 1
    3534    16422    16742 1
    3535     5929     6592 1
    3536    10955    11026 1
    3537     6572     7069 1
    3538    10422    10460 1
    3539    10065    10432 1
    3540     7712     9801 1
    3541     7704     8009 1
    3542     4399     5120 1
    3543    12031    13101 1
    3544    12145    13418 1
    3545     4065     4869 1
    3546     7175     7272 1
    3547    14423    14508 1
    3548     3232     3251 1
    3549     7330     7858 1
    3550     5542     5847 1
    3551    13151    13235 1
    3552    15555    16793 1
    3553     7834     9681 1
    3554    12631    13241 1
    3555     7755     7860 1
    3556    14331    14908 1
    3557    12234    13207 1
    3558    12283    13673 1
    3559    14062    15182 1
    3560    13058    13508 1
    3561     7563     8826 1
    3562     5567     5764 1
    3563     3708     4242 1
    3564     3143     3407 1
    3565     7425     9319 1
    3566    13059    13124 1
    3567        3     1380 1
    3568    13888    14089 1
    3569    16595    17147 1
    3570    16274    16455 1
    3571     2924     2715 1
    3572     5491     6184 1
    3573    16030    16453 1
    3574      697      640 1
    3575    12141    13557 1
    3576    14375    15175 1
    3577     7379     8793 1
    3578      632      413 1
    3579     9148     9455 1
    3580    12256    13255 1
    3581    13392    13550 1
    3582     7670     8051 1
    3583     2890     3234 1
    3584     2121     1923 1
    3585     4575     5043 1
    3586    11001    11025 1
    3587    12653    12721 1
    3588    11452    11480 1
    3589     2787     3255 1
    3590    14369    14729 1
    3591     5717     5986 1
    3592    15921    16433 1
    3593     5384     6531 1
    3594      902    13614 1
    3595    13011    13492 1
    3596    10812    11039 1
    3597     5810     6862 1
    3598     4375    10707 1
    3599     7531     7610 1
    3600    10800    11547 1
    3601    10223    10415 1
    3602    10104    10556 1
    3603     1477      291 1
    3604    15458    15629 1
    3605    15075    15136 1
    3606     7176     8293 1
    3607     4526     5089 1
    3608    14339    15004 1
    3609    15954    16026 1
    3610    10119    11242 1
    3611     2247     2117 1
    3612    14863    15415 1
    3613     3469     2143 1
    3614     2869     3446 1
    3615    16005    16168 1
    3616    13904    14511 1
    3617    12238    12739 1
    3618     8518     9531 1
    3619    12115    12653 1
    3620     8012     8434 1
    3621     2864     3337 1
    3622    13983    15386 1
    3623     8955     8453 1
    3624    16133    16671 1
    3625     1014     1185 1
    3626     2879     2246 1
    3627    12136    12917 1
    3628     3346     3457 1
    3629    10947    11032 1
    3630     7686     9080 1
    3631    11009    15610 1
    3632    16836    16864 1
    3633     4018     4105 1
    3634    13995    15246 1
    3635    14090    14733 1
    3636    16652    16883 1
    3637     3869     4924 1
    3638     1937     2656 1
    3639     8473     8644 1
    3640    13934    15211 1
    3641    15118    15303 1
    3642     2105     2142 1
    3643     6065     6849 1
    3644    12248    12516 1
    3645    10620    11785 1
    3646     9549     9572 1
    3647     3311     1880 1
    3648     3000     2223 1
    3649     5709     6362 1
    3650    10991    11072 1
    3651    16120    16464 1
    3652    15537    16291 1
    3653     5703     6960 1
    3654    14185    14665 1
    3655     3087     1824 1
    3656    13738    15316 1
    3657     8324     9961 1
    3658     5932     6245 1
    3659    11328    11478 1
    3660     9376     9793 1
    3661     2863     3542 1
    3662       37     1535 1
    3663     1205      111 1
    3664    14802    15191 1
    3665     6506     6852 1
    3666     1609     5521 1
    3667    16365    17129 1
    3668     1284    13161 1
    3669     6225     6800 1
    3670    10270    10564 1
    3671     3604     4065 1
    3672    14322    14814 1
    3673     1130      344 1
    3674    14027    14854 1
    3675    16302    17008 1
    3676     7337     9295 1
    3677    12177    13625 1
    3678     6892     7063 1
    3679    11214    11243 1
    3680    15724    16464 1
    3681    14904    14945 1
    3682    12613    13145 1
    3683     2871     2567 1
    3684    16090    17099 1
    3685     3575     4277 1
    3686    11810    11816 1
    3687    10374    10433 1
    3688     3612     4693 1
    3689     3814     3858 1
    3690     3790     4970 1
    3691     3818     4641 1
    3692      910     1348 1
    3693    12067    12194 1
    3694    14399    14706 1
    3695    15453    16389 1
    3696     1072      738 1
    3697    12426    12795 1
    3698    11053    11618 1
    3699     2402     2477 1
    3700    14605    15270 1
    3701    16563    16752 1
    3702    13930    15351 1
    3703     8217     8801 1
    3704    13727    14415 1
    3705    13080    13299 1
    3706     4722     4544 1
    3707    13713    14447 1
    3708      845     1244 1
    3709     7289     7994 1
    3710    14476    15146 1
    3711     7925     8018 1
    3712     4462     5203 1
    3713     3446     2026 1
    3714     7966     8375 1
    3715     9100     9400 1
    3716    13948    14913 1
    3717    12480    13312 1
    3718    10124    10527 1
    3719     3755     4470 1
    3720    12679    13056 1
    3721     5500     6662 1
    3722     6696     6941 1
    3723     8271     9106 1
    3724    10468    11577 1
    3725     1002      489 1
    3726    12619    12777 1
    3727     7409     8023 1
    3728    15837    16641 1
    3729     6178     6994 1
    3730     1619      361 1
    3731     1796     2394 1
    3732      958      564 1
    3733    10739    11286 1
    3734    13229    13629 1
    3735    10721    11254 1
    3736     7475     7816 1
    3737    13704    14861 1
    3738     3918     5144 1
    3739    14118    14698 1
    3740     5184     5204 1
    3741     1673      214 1
    3742     4900     5123 1
    3743    15539    15987 1
    3744    12777    13136 1
    3745    16490    16907 1
    3746     8898     9868 1
    3747    16219    16337 1
    3748     7912     8610 1
    3749     8656     9365 1
    3750    11659    11700 1
    3751    12290    12511 1
    3752    15524    17164 1
    3753     2772     2890 1
    3754    12231    12984 1
    3755    12573    12945 1
    3756    12219    12419 1
    3757      617     1676 1
    3758     7205     7472 1
    3759     3677     5293 1
    3760     3896     4923 1
    3761     4932     4971 1
    3762     7569     9886 1
    3763     2636     2657 1
    3764    10875    11521 1
    3765      783      607 1
    3766     2884     3482 1
    3767    11932    13218 1
    3768     2822     1977 1
    3769    10985    11531 1
    3770    15546    15885 1
    3771     2902     2013 1
    3772    12136    12845 1
    3773     7693     7870 1
    3774     3070     2551 1
    3775     3043     2728 1
    3776     3204     3222 1
    3777     8041     8212 1
    3778     5855     6658 1
    3779     8458     8597 1
    3780     5702     5953 1
    3781     1389      211 1
    3782     6544     6776 1
    3783    13679    14798 1
    3784     5596     7050 1
    3785     5942     6499 1
    3786     7258     7938 1
    3787    14817    15318 1
    3788     6669     7119 1
    3789     5913     6519 1
    3790    10401    11265 1
    3791     6270     6540 1
    3792    13106    13441 1
    3793     5691     6200 1
    3794     8738     9196 1
    3795     3749     4062 1
    3796     8155     9313 1
    3797     1834     1837 1
    3798     3746     4896 1
    3799     2060     2582 1
    3800      746     1487 1
    3801      764     1441 1
    3802    13723    13995 1
    3803    12441    13123 1
    3804    16418    17153 1
    3805    14114    14881 1
    3806     3585     4819 1
    3807     3857     4719 1
    3808    10116    10233 1
    3809    13890    15040 1
    3810     3453     1912 1
    3811    12414    12727 1
    3812    15991    16460 1
    3813     4618     5029 1
    3814    10120    11312 1
    3815      650      320 1
    3816     3378     2026 1
    3817    10587    11594 1
    3818     3560     2102 1
    3819     3235     3480 1
    3820     6066     8830 1
    3821     5941     6006 1
    3822    11289    11606 1
    3823     7460     8304 1
    3824     3695     4279 1
    3825     3687     5287 1
    3826    10768    11697 1
    3827     1256     1271 1
    3828    12054    13514 1
    3829     1374     1454 1
    3830     4007     4173 1
    3831     6634     6857 1
    3832    14507    15164 1
    3833    13791    14138 1
    3834     3918     4222 1
    3835    16706    16926 1
    3836     6336     6640 1
    3837     6755     7143 1
    3838    10261    11317 1
    3839     8094     8850 1
    3840     6122     7077 1
    3841     2090     1890 1
    3842      568      328 1
    3843     3059     2543 1
    3844     3723     5072 1
    3845    14268    14585 1
    3846    14582    14868 1
    3847     6297     6378 1
    3848    13800    13916 1
    3849     5681     5718 1
    3850    10636    11191 1
    3851     2842     3045 1
    3852     1249     1331 1
    3853     2765     3104 1
    3854     5450     5483 1
    3855    16377    16664 1
    3856     7193     7991 1
    3857     1128     1240 1
    3858     3555     2595 1
    3859    10115    10551 1
    3860      880      425 1
    3861     8837     9311 1
    3862     5781     6985 1
    3863    13248    13298 1
    3864      793      899 1
    3865     8662    10047 1
    3866     6019     6137 1
    3867     5380     5473 1
    3868     2408     2675 1
    3869     8860     8492 1
    3870    15509    15967 1
    3871    11985    12645 1
    3872    13945    15169 1
    3873    12251    13048 1
    3874     6304     6690 1
    3875     9051     9870 1
    3876    10254    11462 1
    3877     8907     7162 1
    3878    15957    16765 1
    3879     4826     5345 1
    3880     3294     2566 1
    3881    14938    15319 1
    3882    16713    16734 1
    3883     8990     8013 1
    3884     6666     6741 1
    3885     4846     5155 1
    3886    10207    10863 1
    3887     6133     6358 1
    3888     9981    10047 1
    3889     1290     1408 1
    3890     4711     4814 1
    3891     3665     3937 1
    3892     4422     5042 1
    3893     5575     6701 1
    3894     7935     9965 1
    3895     3316     2634 1
    3896    12198    13045 1
    3897     3932     4294 1
    3898     2884     4125 1
    3899     1090      274 1
    3900     8539    14138 1
    3901     6323     6648 1
    3902    15554    17103 1
    3903    12234    12304 1
    3904     8521     9360 1
    3905     6484     6892 1
    3906     4686     4941 1
    3907    16315    17112 1
    3908      973     1476 1
    3909    12214    12492 1
    3910      494      655 1
    3911    10405    11730 1
    3912    14380    15070 1
    3913    12038    12264 1
    3914     2055     2447 1
    3915       30       24 1
    3916    10695    11730 1
    3917     6288     6883 1
    3918     3579     3658 1
    3919       34       61 1
    3920    16220    16835 1
    3921    10599    10933 1
    3922    15677    16366 1
    3923     7286     8107 1
    3924     8078     8303 1
    3925    13647    13698 1
    3926     5071     5175 1
    3927     3839     3909 1
    3928    12198    13394 1
    3929     8964     9952 1
    3930     2137     1813 1
    3931     8702     9564 1
    3932    13836    14034 1
    3933    14201    15020 1
    3934    10934    11423 1
    3935     4093     4828 1
    3936    13748    14890 1
    3937     5927     6788 1
    3938     7505     9175 1
    3939    12854    13564 1
    3940    12947    13487 1
    3941     3173     2554 1
    3942    10725    16064 1
    3943    12087    12657 1
    3944    14328    14948 1
    3945    10151    10587 1
    3946    10526    11340 1
    3947    14590    15010 1
    3948     1371     1374 1
    3949     1900     2349 1
    3950       13      702 1
    3951     1275     1563 1
    3952     5394     7028 1
    3953    11680    16316 1
    3954    12035    12455 1
    3955     3921     4572 1
    3956     6314     6435 1
    3957     3693     4028 1
    3958    12030    12476 1
    3959     7207     8591 1
    3960    10520    11454 1
    3961     3605     4617 1
    3962    14031    14649 1
    3963    10540    10822 1
    3964    15533    17116 1
    3965    11921    12340 1
    3966    14397    14971 1
    3967    12988    13519 1
    3968     3910     5068 1
    3969     3201     3405 1
    3970     2252     2650 1
    3971     6027    10938 1
    3972    16624    16687 1
    3973     3275     2075 1
    3974     1263     1340 1
    3975    16827    17204 1
    3976    12404    13098 1
    3977     3198     2214 1
    3978     8066     9597 1
    3979     3424     2299 1
    3980     2775     2017 1
    3981    15569    16475 1
    3982    16544    16967 1
    3983     7542     8133 1
    3984     3003     2037 1
    3985     3763     5149 1
    3986     2792     2100 1
    3987     8991     8476 1
    3988     5410     7102 1
    3989    11394    11621 1
    3990     2983     2597 1
    3991     3593     4337 1
    3992     9079     9812 1
    3993    16057    16580 1
    3994    11417    11684 1
    3995     3576     4211 1
    3996    10076    10082 1
    3997    14650    15358 1
    3998     8408     8600 1
    3999    11942    12745 1
    4000       79      186 1
    4001     2800     3190 1
    4002     5543     6589 1
    4003    14097    15142 1
    4004    10632    11284 1
    4005     4591     5258 1
    4006    16445    16619 1
    4007     3689     4825 1
    4008    12464    13324 1
    4009      354      267 1
    4010     9050     8456 1
    4011     1035     1247 1
    4012    15849    16891 1
    4013     4313     4549 1
    4014    12502    13522 1
    4015     9024     7260 1
    4016     3468     2043 1
    4017     6135     6783 1
    4018    11949    12613 1
    4019     7234     9802 1
    4020     2930     3463 1
    4021      421      194 1
    4022    15643    16581 1
    4023      737     5599 1
    4024    14066    15261 1
    4025     3637     5170 1
    4026    10246    11065 1
    4027    15910    16845 1
    4028     4409     4476 1
    4029     3599     4978 1
    4030    10821    11384 1
    4031     2951     3353 1
    4032      576      588 1
    4033    12789    13364 1
    4034     4341     4859 1
    4035    12244    12691 1
    4036    10906    11805 1
    4037     6348     7109 1
    4038     4067     4434 1
    4039    11549    11621 1
    4040     4438     5114 1
    4041     4755     4985 1
    4042      668      135 1
    4043    10138    10284 1
    4044     4549     4573 1
    4045     8399     9579 1
    4046    12119    12643 1
    4047     2390     2528 1
    4048    16128    16279 1
    4049    10673    11064 1
    4050     7731     9517 1
    4051     8896     8300 1
    4052      347      133 1
    4053     7422     8088 1
    4054    16326    16563 1
    4055    16269    16774 1
    4056    10340    11102 1
    4057     8809     9469 1
    4058     4101     4904 1
    4059     4667     5216 1
    4060     1044      629 1
    4061    15522    16604 1
    4062    14461    15019 1
    4063    14710    15426 1
    4064    12995    13525 1
    4065    10535    11461 1
    4066     5845     6609 1
    4067    10783    11456 1
    4068     3381     2127 1
    4069     3697     4053 1
    4070    10348    11244 1
    4071     3832     4354 1
    4072     7700    10053 1
    4073    13667    14665 1
    4074    15074    15181 1
    4075     4130     4895 1
    4076     5997     6256 1
    4077     2878     3432 1
    4078    12671    12975 1
    4079    12530    13627 1
    4080    12861    13051 1
    4081     7911     8622 1
    4082     5817     6632 1
    4083    13803    15039 1
    4084    15939    16248 1
    4085     5790     6296 1
    4086    12130    12970 1
    4087     3655     4270 1
    4088    15854    16310 1
    4089     2876     3310 1
    4090    14566    14643 1
    4091     3968     5079 1
    4092    12914    13112 1
    4093    11866    13333 1
    4094    10368    11432 1
    4095    12473    13037 1
    4096    15526    16523 1
    4097    14259    15080 1
    4098      298     1761 1
    4099     4005     4534 1
    4100    13798    15270 1
    4101     2390     2565 1
    4102    12137    13032 1
    4103    15666    16035 1
    4104    13322    13375 1
    4105     2019     2735 1
    4106    15793    15941 1
    4107     8774    14189 1
    4108    13867    15243 1
    4109     4066     4846 1
    4110     3276     1934 1
    4111     8150    10039 1
    4112     1665      337 1
    4113    14188    15047 1
    4114    15594    16777 1
    4115    11914    13211 1
    4116     1449      227 1
    4117     3615     4570 1
    4118     3386     1849 1
    4119     5425     5471 1
    4120    10607    11464 1
    4121     7913     9762 1
    4122    16221    16670 1
    4123    16028    16529 1
    4124     3876     3902 1
    4125     3378     2176 1
    4126    11938    12624 1
    4127    12644    13016 1
    4128    16172    16627 1
    4129    15212    15339 1
    4130    12071    12389 1
    4131    13233    13610 1
    4132     7334     8113 1
    4133      729     1762 1
    4134    11982    13135 1
    4135     1720     1462 1
    4136     1995     2041 1
    4137     3058     1877 1
    4138     5455     6532 1
    4139     4568     5137 1
    4140     9212    15341 1
    4141     5084     5308 1
    4142     9103    10911 1
    4143    12518    12817 1
    4144     4371     4778 1
    4145    10859    16083 1
    4146     3478     1893 1
    4147     2444     5314 1
    4148    12341    13219 1
    4149    16001    16317 1
    4150      964     1285 1
    4151    13702    14775 1
    4152    11902    12247 1
    4153     3716     4451 1
    4154    14539    15102 1
    4155     1547      406 1
    4156     4331     5259 1
    4157     1213     1380 1
    4158     3951     5272 1
    4159    14305    15347 1
    4160     1096      741 1
    4161     7284     8490 1
    4162     5054     5237 1
    4163     3132     3175 1
    4164     6212     6315 1
    4165      594      341 1
    4166     9285     9626 1
    4167    12875    13089 1
    4168     5582     6725 1
    4169    14358    14519 1
    4170     1430      117 1
    4171    12477    12524 1
    4172    15521    16933 1
    4173     5533     5574 1
    4174    11909    12314 1
    4175     8914     8366 1
    4176     8181     9687 1
    4177      537     1596 1
    4178      755     1143 1
    4179     8883     8718 1
    4180     6500     7084 1
    4181     7806     9983 1
    4182    12958    13507 1
    4183     2428     2528 1
    4184     6140     7067 1
    4185     7231     9594 1
    4186     3759     3942 1
    4187     3745     4739 1
    4188    13872    15016 1
    4189    13885    14648 1
    4190    12978    13403 1
    4191    15857    16109 1
    4192     9022     9694 1
    4193      589     1687 1
    4194    15522    16213 1
    4195     2852     2568 1
    4196     2051     2418 1
    4197    12306    12742 1
    4198     2747      140 1
    4199    15778    17129 1
    4200    14753    15288 1
    4201       54      282 1
    4202     7736     8367 1
    4203     5835     6439 1
    4204     5798     6578 1
    4205     7671     9245 1
    4206     3246     3506 1
    4207    14575    14710 1
    4208     5972     6924 1
    4209    13942    14408 1
    4210    14996    15256 1
    4211     9226    11262 1
    4212     8015     9096 1
    4213     3523     2072 1
    4214     7642     9317 1
    4215      816     1701 1
    4216    11851    12770 1
    4217     7347     9684 1
    4218     8948     9728 1
    4219    11485    11758 1
    4220    10987    11745 1
    4221     7320     9874 1
    4222    11372    11738 1
    4223     2302     1860 1
    4224     1386      246 1
    4225     8935     9947 1
    4226     8116     9386 1
    4227    14519    15286 1
    4228    11897    12803 1
    4229    13959    14199 1
    4230     3299     2195 1
    4231      971     1747 1
    4232     1066      163 1
    4233    15490    17034 1
    4234     9056     7186 1
    4235     9291     9405 1
    4236     5662     6683 1
    4237    13935    14958 1
    4238     7252     9072 1
    4239     2255     2032 1
    4240     8609     8691 1
    4241    16492    16721 1
    4242     3802     4691 1
    4243     3366     2353 1
    4244     7852     8281 1
    4245     3271     2633 1
    4246    11917    13064 1
    4247    13855    13996 1
    4248     5619     5822 1
    4249     3251     2733 1
    4250    12549    13403 1
    4251     9234     9826 1
    4252     9005    10027 1
    4253      411      483 1
    4254     4037     4975 1
    4255    14352    14749 1
    4256    14072    15010 1
    4257    15148    15372 1
    4258     7678     9364 1
    4259    16209    16773 1
    4260    12178    12853 1
    4261      977      213 1
    4262    12421    12945 1
    4263     3981     5086 1
    4264     5843     6840 1
    4265     6327     6874 1
    4266     9165     9760 1
    4267    10293    11799 1
    4268    16229    16579 1
    4269     6046     6875 1
    4270     8897     7764 1
    4271    12261    13184 1
    4272     3072     2256 1
    4273     7719     9991 1
    4274    10096    10531 1
    4275     6142     6966 1
    4276    12554    13521 1
    4277     1348      323 1
    4278    10264    10692 1
    4279     8434     9305 1
    4280    15866    16056 1
    4281    13002    13031 1
    4282    16596    17052 1
    4283    13210    13218 1
    4284    13811    14807 1
    4285    16009    16356 1
    4286     5499     5697 1
    4287    14459    15024 1
    4288     7620     7863 1
    4289     4224     4994 1
    4290    15120    16676 1
    4291     2051     2139 1
    4292    14539    15253 1
    4293     3021     2548 1
    4294    12137    13035 1
    4295     7572     9402 1
    4296     2996     2132 1
    4297     5670     7135 1
    4298    14094    14183 1
    4299     8370     8815 1
    4300     2803     1931 1
    4301    16249    17132 1
    4302     5436     5871 1
    4303    10909    10930 1
    4304     3642    11172 1
    4305    13880    14571 1
    4306      669     7057 1
    4307     2810     3498 1
    4308     3554     2726 1
    4309    13079    13588 1
    4310    10789    10930 1
    4311    13226    13549 1
    4312    14726    14777 1
    4313     1573     1425 1
    4314     6491     6680 1
    4315    13943    14680 1
    4316     8183     8792 1
    4317    14676    14981 1
    4318      564     1368 1
    4319     8988     8307 1
    4320    15876    15961 1
    4321     8815     9289 1
    4322    15576    16821 1
    4323     9085     9795 1
    4324       23     1624 1
    4325      716      300 1
    4326    13700    14101 1
    4327     4672     4458 1
    4328     3162     2284 1
    4329    15873    16721 1
    4330    10341    11335 1
    4331    16087    16527 1
    4332     5792    10222 1
    4333    16470    16477 1
    4334    16255    16822 1
    4335     7088     7105 1
    4336    11565    11788 1
    4337     3395    14835 1
    4338     3066     2383 1
    4339     4740     5139 1
    4340    15944    16548 1
    4341     7784     8363 1
    4342     1446     1472 1
    4343      850      623 1
    4344      966     1827 1
    4345    14442    14670 1
    4346    12182    13487 1
    4347    15741    16167 1
    4348     7378     7770 1
    4349     5603     6303 1
    4350     2844     2183 1
    4351    12490    13488 1
    4352    10920    11488 1
    4353     8263     9127 1
    4354     7494     8004 1
    4355    14911    15221 1
    4356    12694    13308 1
    4357     4965     5348 1
    4358    12980    13560 1
    4359    11883    12484 1
    4360     2765     2593 1
    4361    11159    11385 1
    4362    11228    11229 1
    4363     7696     9596 1
    4364    10002    10022 1
    4365     3280     3354 1
    4366     4056     4531 1
    4367    14858    14886 1
    4368    12016    13008 1
    4369     8112     8785 1
    4370     4079     4686 1
    4371    14939    15149 1
    4372    16934    17126 1
    4373    11894    13176 1
    4374     6772     7125 1
    4375    10098    11588 1
    4376     9224     9567 1
    4377    13934    14732 1
    4378     3262     2712 1
    4379     5867     7098 1
    4380    15574    16844 1
    4381     2276     1909 1
    4382      660     1541 1
    4383    16452    17168 1
    4384     3169     2104 1
    4385    11120    11124 1
    4386     1295      491 1
    4387     6173     7134 1
    4388     9369     9824 1
    4389      414      480 1
    4390     2346     2691 1
    4391    14795    14892 1
    4392    10492    11677 1
    4393     6407     6822 1
    4394    12159    13153 1
    4395    15886    15948 1
    4396    10304    10988 1
    4397     8414     8575 1
    4398     3733    17044 1
    4399    10436    11546 1
    4400    13135    13341 1
    4401    12006    12322 1
    4402    14076    14106 1
    4403     6424     6428 1
    4404     4245     5061 1
    4405      651     1421 1
    4406    15790    16718 1
    4407    11264    11570 1
    4408     9031     8411 1
    4409    11183    11761 1
    4410    14572    14790 1
    4411    10616    11083 1
    4412    15450    16924 1
    4413     3487     2165 1
    4414     7482     8658 1
    4415     5387     7120 1
    4416    15441    16128 1
    4417     5630     6831 1
    4418     2972     1896 1
    4419    16108    16815 1
    4420     4406     5175 1
    4421     1759     1769 1
    4422    13800    14261 1
    4423    16385    16808 1
    4424    10548    11325 1
    4425      526     1329 1
    4426     8055     8747 1
    4427     3760     4833 1
    4428     4097     4436 1
    4429    12813    13319 1
    4430    15648    16797 1
    4431    15842    16355 1
    4432    10178    11120 1
    4433     7916     8461 1
    4434    14523    14737 1
    4435    12586    13595 1
    4436     5954     6147 1
    4437     5205     5274 1
    4438     5432     7052 1
    4439      644     1577 1
    4440    11889    13598 1
    4441     7981     9783 1
    4442    14056    14186 1
    4443    10355    10773 1
    4444     7374     9901 1
    4445     7206     9883 1
    4446     3676     4082 1
    4447    10403    11505 1
    4448    12823    13367 1
    4449     2901     2940 1
    4450     1051      155 1
    4451     3645     4943 1
    4452     4055     5088 1
    4453      720      582 1
    4454    16189    16209 1
    4455    16116    16668 1
    4456    15589    15909 1
    4457    15651    15778 1
    4458    15867    16716 1
    4459    14422    15037 1
    4460     4089     4927 1
    4461     7664     8379 1
    4462     1145     1675 1
    4463       52      458 1
    4464    14835    15159 1
    4465     9188     9797 1
    4466     3404     2683 1
    4467    12210    12247 1
    4468     5653     6364 1
    4469    13801    15320 1
    4470     1041      153 1
    4471    12397    13162 1
    4472    11583    11835 1
    4473    13985    14013 1
    4474     6542     6614 1
    4475    11105    11836 1
    4476    10091    11708 1
    4477    10408    11257 1
    4478    11093    11170 1
    4479    14540    14772 1
    4480    10314    10835 1
    4481    12613    13612 1
    4482     7887     8064 1
    4483    13650    15165 1
    4484     2037     1919 1
    4485     3546     2153 1
    4486    10436    11804 1
    4487    12296    13172 1
    4488    10700    11559 1
    4489    13078    13397 1
    4490     3438     2479 1
    4491     6219     6524 1
    4492     7248     8078 1
    4493    11355    11841 1
    4494     3939     3976 1
    4495    12501    12972 1
    4496     3713      234 1
    4497      755      890 1
    4498     7618     9583 1
    4499    10805    11325 1
    4500     7505     8487 1
    4501     1105      714 1
    4502     9014     9974 1
    4503    13181    13626 1
    4504     5679     6646 1
    4505    12265    12916 1
    4506     2785     2196 1
    4507     1203      354 1
    4508     2282     2142 1
    4509     5807     6723 1
    4510    12662    13230 1
    4511    12129    13551 1
    4512    11034    11561 1
    4513     1559      436 1
    4514     7771     9692 1
    4515     7273    10017 1
    4516     9191     9539 1
    4517     1757     1762 1
    4518     2858     2125 1
    4519    12612    13127 1
    4520     4441     5234 1
    4521     7950     8757 1
    4522     7408     7999 1
    4523     4734     5282 1
    4524     4138     4488 1
    4525    13759    15387 1
    4526     8149     8372 1
    4527     1076     4829 1
    4528     4687     4609 1
    4529     7455     9956 1
    4530     8980     8785 1
    4531     4308     5337 1
    4532    14335    15107 1
    4533    13686    15360 1
    4534     1296     1322 1
    4535    11359    11551 1
    4536    11361    11639 1
    4537     5562     7103 1
    4538    10819    11511 1
    4539      569      581 1
    4540    15726    16871 1
    4541     2289     1808 1
    4542     5443     6851 1
    4543     3843     4676 1
    4544    14329    14484 1
    4545    12258    13274 1
    4546     3018     2468 1
    4547     3704     4397 1
    4548     3608    10658 1
    4549     1801     2480 1
    4550     6307     7121 1
    4551     1152     1395 1
    4552    10189    11082 1
    4553     7832     9500 1
    4554    15060    16448 1
    4555    10080    11457 1
    4556     3107     3353 1
    4557    12299    12924 1
    4558     2353     2365 1
    4559     3715     4614 1
    4560     7538     8825 1
    4561      892     1633 1
    4562    13097    15282 1
    4563    10652    11334 1
    4564     7793     9614 1
    4565    13636    14069 1
    4566    15919    17100 1
    4567    12718    13357 1
    4568     8280    10750 1
    4569     1132      255 1
    4570     2850     3258 1
    4571    16237    16511 1
    4572    10297    11420 1
    4573     1657      194 1
    4574    13691    14127 1
    4575     5241     5256 1
    4576     7704     8264 1
    4577    16474    16667 1
    4578     1531     1780 1
    4579     4061     5234 1
    4580    10494    11269 1
    4581    16222    16399 1
    4582    13976    14241 1
    4583    14634    15202 1
    4584    14027    14700 1
    4585    11174    11243 1
    4586    15623    16244 1
    4587     8440     9897 1
    4588     7245     8178 1
    4589     7784     9984 1
    4590     2856     3573 1
    4591      841     1216 1
    4592     1368      243 1
    4593     3415     2601 1
    4594    10941    11155 1
    4595    11081    11551 1
    4596     5405     6994 1
    4597     5645     6508 1
    4598     1049     1314 1
    4599     7718     8198 1
    4600    12648    13457 1
    4601     7844     9473 1
    4602     8305     9367 1
    4603     8024     8578 1
    4604     1466      269 1
    4605     5857     7020 1
    4606     3567     1798 1
    4607    15559    17005 1
    4608    11886    13379 1
    4609    13275    13616 1
    4610     6379     6769 1
    4611     8309     9302 1
    4612     7590     8294 1
    4613     4078     4836 1
    4614    13430    13493 1
    4615     5609     5832 1
    4616     8717    10013 1
    4617     3192     2671 1
    4618     7932     9977 1
    4619    15502    17162 1
    4620     4592     4964 1
    4621    10344    11544 1
    4622    11548    11549 1
    4623    13694    14300 1
    4624    13969    15280 1
    4625     4059     4664 1
    4626     6236     6861 1
    4627    16513    16986 1
    4628     8971     7918 1
    4629    16006    16869 1
    4630    12305    13115 1
    4631     5571     5996 1
    4632     2493     2602 1
    4633     3581     3862 1
    4634     5448     5731 1
    4635     5578     6761 1
    4636     2277     2304 1
    4637    12755    13581 1
    4638     1792     2356 1
    4639    16043    16994 1
    4640     3309     2478 1
    4641    15730    15927 1
    4642     5488     6420 1
    4643     5378     5764 1
    4644    15746    16894 1
    4645     7791     8727 1
    4646     6883     7025 1
    4647     4614     5017 1
    4648     6262     6831 1
    4649    15741    15980 1
    4650     7368     7694 1
    4651    13048    16108 1
    4652    11138    11695 1
    4653      594      248 1
    4654    12281    13057 1
    4655     3075     3256 1
    4656    12040    12654 1
    4657    12490    13257 1
    4658     7272     8462 1
    4659     7684    10822 1
    4660     3436     2740 1
    4661    13892    14485 1
    4662      645     1507 1
    4663     3319     1823 1
    4664    11391    11837 1
    4665    12082    12446 1
    4666     6315    12027 1
    4667     1191     1679 1
    4668     8105     9174 1
    4669     7395     7947 1
    4670    15085    15103 1
    4671     8202     8490 1
    4672     4385     4678 1
    4673    15869    16493 1
    4674     6175     7067 1
    4675     8482     9747 1
    4676     7904     9337 1
    4677     4045     4650 1
    4678     4210     4513 1
    4679    11084    11330 1
    4680    12692    13595 1
    4681     8923     8394 1
    4682     2929     3461 1
    4683     3713      967 1
    4684      697     1670 1
    4685     5531     5919 1
    4686     3803     4580 1
    4687    16627    16739 1
    4688     7175     8527 1
    4689     7203     9994 1
    4690     2235     1797 1
    4691    15948    17097 1
    4692       67     1167 1
    4693    10924    11678 1
    4694     7547     8518 1
    4695    12856    16138 1
    4696    12564    13541 1
    4697     4372     4919 1
    4698    16197    17181 1
    4699     5821     6245 1
    4700     8088     9467 1
    4701     8063     9194 1
    4702    10240    11828 1
    4703    14246    14894 1
    4704    15662    17120 1
    4705     7359     8654 1
    4706     8333     8384 1
    4707    10547    11348 1
    4708     2238     2287 1
    4709     3277     2166 1
    4710     6169     6309 1
    4711     7823     9627 1
    4712      552      465 1
    4713     8088     9416 1
    4714    12103    12621 1
    4715    12836    13620 1
    4716     2322     2593 1
    4717     7619    11408 1
    4718     5372     6056 1
    4719     1271     1642 1
    4720     3927     4776 1
    4721     4951     5176 1
    4722     8100     9488 1
    4723     3587     4030 1
    4724    13634    14270 1
    4725    10869    11821 1
    4726     1720      438 1
    4727    11018    11639 1
    4728     7081     7142 1
    4729       65      110 1
    4730      624     1606 1
    4731     6172     6792 1
    4732    16370    16505 1
    4733    14891    15409 1
    4734    10597    11550 1
    4735     5612     6359 1
    4736    15871    16217 1
    4737     6791     7117 1
    4738     5401     6900 1
    4739     3680     4342 1
    4740     6157     6507 1
    4741     3454     2606 1
    4742     1960     2697 1
    4743    14147    14991 1
    4744    15592    16732 1
    4745    14462    14574 1
    4746    10520    11360 1
    4747     1003     1360 1
    4748    12448    13439 1
    4749     5465     6717 1
    4750    17063    17129 1
    4751    13688    15038 1
    4752    12435    12789 1
    4753     3243     2084 1
    4754     2613     7999 1
    4755     1206      408 1
    4756    14495    15108 1
    4757     7318     8494 1
    4758     1871     2588 1
    4759    14208    14870 1
    4760     4749     5283 1
    4761     9485     9895 1
    4762     8117     9094 1
    4763     8769    14189 1
    4764    10150    10432 1
    4765    10283    11222 1
    4766    12469    13224 1
    4767    10829    11294 1
    4768    11300    11437 1
    4769     6196     6983 1
    4770    13680    13825 1
    4771    12181    13507 1
    4772     7509     7708 1
    4773     8196     8368 1
    4774    10141    10862 1
    4775     1090      427 1
    4776     2322     2571 1
    4777    10300    11275 1
    4778     8524     9558 1
    4779    10325    11647 1
    4780      803     1729 1
    4781    10499    11210 1
    4782     8839     9430 1
    4783     2523     2591 1
    4784    12442    13101 1
    4785     7689     8299 1
    4786     6158     6366 1
    4787     5817     6685 1
    4788     2181     2680 1
    4789     2098     2415 1
    4790     1008     1576 1
    4791    14526    15034 1
    4792     6408     6886 1
    4793    15730    16755 1
    4794    12742    13289 1
    4795      543      482 1
    4796     9042     7275 1
    4797     7692     9169 1
    4798     3578     4147 1
    4799    15465    16737 1
    4800     7865     9679 1
    4801    13772    15060 1
    4802     8460     8771 1
    4803    14548    14864 1
    4804     3713     4996 1
    4805    10479    11466 1
    4806    12357    12706 1
    4807     4017     4433 1
    4808    11214    11288 1
    4809     6656     6862 1
    4810    14205    14623 1
    4811      861      524 1
    4812     2611     5297 1
    4813    10216    10534 1
    4814     2993     1264 1
    4815     9035     9869 1
    4816    12543    13059 1
    4817    13375    13494 1
    4818     3839     4094 1
    4819    13767    14664 1
    4820     1116     1665 1
    4821      904      998 1
    4822     3307     2005 1
    4823    10874    11680 1
    4824       24      952 1
    4825     2855     3452 1
    4826    11324    11545 1
    4827     7762     8117 1
    4828     6270     6558 1
    4829    10143    11739 1
    4830     8651     9523 1
    4831     2989     2581 1
    4832    15531    15897 1
    4833     2200     2266 1
    4834    13644    14732 1
    4835    11052    11464 1
    4836     7960     8745 1
    4837    11904    13154 1
    4838     4461     4969 1
    4839     1016     1641 1
    4840     3983     4056 1
    4841    10284    11065 1
    4842     2095     2660 1
    4843        1     1254 1
    4844       68      931 1
    4845     2339     2505 1
    4846    13746    14962 1
    4847    16075    17011 1
    4848    13830    14561 1
    4849     1574      345 1
    4850    13455    15399 1
    4851    11863    11970 1
    4852     1298      325 1
    4853     9286    10054 1
    4854    12717    13339 1
    4855     5919     6774 1
    4856     6641     6662 1
    4857    12516    12750 1
    4858     7298     8448 1
    4859    13632    13852 1
    4860    15926    16087 1
    4861      859     1731 1
    4862     6147     6265 1
    4863    10639    16123 1
    4864    16877    16947 1
    4865       77      931 1
    4866    16073    16640 1
    4867    16535    17043 1
    4868     2809     1920 1
    4869    10823    11124 1
    4870    10227    10742 1
    4871    11568    11643 1
    4872     8125     9999 1
    4873    16135    16275 1
    4874     5419     5540 1
    4875      887      545 1
    4876    13993    14142 1
    4877    10323    11519 1
    4878     8882     9054 1
    4879    15645    16933 1
    4880     3768     4973 1
    4881    13003    13554 1
    4882    14275    15212 1
    4883     3577     4162 1
    4884     7956     9566 1
    4885     2075     1795 1
    4886     6658     7151 1
    4887     3889     4886 1
    4888     3905     4034 1
    4889     3685     4778 1
    4890     3841     4063 1
    4891     1695     1743 1
    4892    15559    16163 1
    4893    14186    15233 1
    4894     3522     1985 1
    4895    14894    15248 1
    4896     7852     9471 1
    4897    12807    15567 1
    4898      856      877 1
    4899     2968     1906 1
    4900     4665     5097 1
    4901     6501     7020 1
    4902    11587    11714 1
    4903    10447    10956 1
    4904     7211     9653 1
    4905     5364     7016 1
    4906    12082    13483 1
    4907     7160     7873 1
    4908    14040    15150 1
    4909     4837     4915 1
    4910     4543     5048 1
    4911    10848    10884 1
    4912    15583    16942 1
    4913     8096     8676 1
    4914      865      660 1
    4915     3618     4491 1
    4916     5961     6778 1
    4917    11976    13262 1
    4918    11973    13096 1
    4919    12365    12705 1
    4920     1552      433 1
    4921     4279     4940 1
    4922     8966     9151 1
    4923     4373     4747 1
    4924    15624    16784 1
    4925    12468    12988 1
    4926    11166    11824 1
    4927    14391    15325 1
    4928     5495     5614 1
    4929    11221    11657 1
    4930    10743    11378 1
    4931     1043      311 1
    4932     5466     7046 1
    4933     7924     9451 1
    4934     6078     6837 1
    4935    15846    16986 1
    4936    13968    15301 1
    4937     4308     4685 1
    4938     3343     2609 1
    4939    13760    15303 1
    4940    11980    13168 1
    4941     7614     9695 1
    4942     4751     4481 1
    4943     9041     8648 1
    4944     3083     2110 1
    4945    10925    11581 1
    4946    12095    12114 1
    4947     3794     5094 1
    4948     7632     9236 1
    4949     1728      144 1
    4950     3455     1972 1
    4951     3807     4400 1
    4952    12212    12646 1
    4953    12013    13566 1
    4954    14538    14609 1
    4955     7888     9427 1
    4956    14380    14586 1
    4957     4185     4187 1
    4958    15698    15709 1
    4959    15605    16783 1
    4960     2283     1863 1
    4961     5665     6784 1
    4962      537     1516 1
    4963    13829    15243 1
    4964    13947    14950 1
    4965     1588      449 1
    4966     2263     2573 1
    4967     6621     6744 1
    4968    16366    16907 1
    4969    12368    12879 1
    4970     2970     4428 1
    4971     2944     2973 1
    4972     9047     8319 1
    4973     7883     9258 1
    4974    16127    16745 1
    4975    10336    10864 1
    4976     7243     7570 1
    4977     3086     3298 1
    4978    15483    15844 1
    4979     2785     3196 1
    4980    16245    17075 1
    4981     4362     4538 1
    4982     5388     5855 1
    4983    16343    16660 1
    4984     7387     7539 1
    4985     1044     1760 1
    4986     5761     6373 1
    4987    12284    12902 1
    4988     7576     8044 1
    4989     5411     6172 1
    4990    11040    11769 1
    4991    10469    10687 1
    4992    16810    16888 1
    4993     4081     4389 1
    4994     7340     7988 1
    4995    10790    11574 1
    4996     5830     7085 1
    4997    10241    11312 1
    4998     7842     9188 1
    4999     2916     2039 1
    5000     8810     9964 1
    5001     9571     9855 1
    5002     9125     9869 1
    5003    16373    16850 1
    5004     4032     4865 1
    5005     9003     7212 1
    5006    12779    12914 1
    5007    10550    10765 1
    5008     3681     3861 1
    5009    10182    11718 1
    5010    16323    16836 1
    5011     7970     8552 1
    5012    10171    11255 1
    5013    15932    16152 1
    5014      797     1145 1
    5015     5574     6336 1
    5016    14814    15349 1
    5017     3272     3373 1
    5018    11532    11561 1
    5019     6839     6899 1
    5020     3391     2615 1
    5021    12160    12376 1
    5022     5523     6507 1
    5023     1687     1320 1
    5024     4699     5333 1
    5025     1901     2359 1
    5026    12628    13042 1
    5027      536     1632 1
    5028     8876     8548 1
    5029    10263    11595 1
    5030    10086    10769 1
    5031     6451     8332 1
    5032     7975     8466 1
    5033     6315     6882 1
    5034       15      696 1
    5035    13779    15045 1
    5036       19      764 1
    5037     2998     2168 1
    5038     3458     1994 1
    5039     8572     9734 1
    5040     9010     9372 1
    5041    14046    15069 1
    5042     9144    10026 1
    5043      829     1559 1
    5044     8078     9625 1
    5045     4390     5267 1
    5046    14041    14639 1
    5047    16694    16860 1
    5048    14544    15166 1
    5049     7271     7811 1
    5050     5687     5992 1
    5051    15599    15640 1
    5052    16150    16890 1
    5053      833      401 1
    5054    10373    11336 1
    5055     6095     6474 1
    5056    12829    13165 1
    5057    15831    16498 1
    5058     8544     8842 1
    5059     9005     8037 1
    5060     8947    13868 1
    5061    16255    16364 1
    5062     8995     8442 1
    5063    15820    16544 1
    5064     6021     9973 1
    5065     4424     4526 1
    5066    14760    15163 1
    5067    14655    15238 1
    5068     9007     8098 1
    5069     5898     6998 1
    5070     7232     9257 1
    5071    10209    11106 1
    5072    13805    14663 1
    5073    14055    14978 1
    5074    10938    11727 1
    5075     7571     7712 1
    5076     9318     9886 1
    5077    16270    16292 1
    5078     4347     5020 1
    5079     4187     5268 1
    5080    16443    16851 1
    5081     4713     4505 1
    5082    10152    11561 1
    5083     7500     9577 1
    5084     7581     9592 1
    5085    13635    14371 1
    5086     3381     2202 1
    5087    15635    15812 1
    5088     8761     9986 1
    5089    11300    11713 1
    5090      100      304 1
    5091    12878    12886 1
    5092    15497    16287 1
    5093     3669     4353 1
    5094    10752    10902 1
    5095     7449     9749 1
    5096    15466    15665 1
    5097     9094     9879 1
    5098     4804     4889 1
    5099     1058     1473 1
    5100     2837     2016 1
    5101     3114     2311 1
    5102     8356     9201 1
    5103    14600    14924 1
    5104     3214     3489 1
    5105    15768    16377 1
    5106     1427     1749 1
    5107     7831     8294 1
    5108     4644     5236 1
    5109    13600    13606 1
    5110    15628    17172 1
    5111     1082      686 1
    5112    11977    12627 1
    5113     6313     6962 1
    5114      943     1414 1
    5115     7204     7974 1
    5116      648     1367 1
    5117    12010    13153 1
    5118    11070    11693 1
    5119     2232     1854 1
    5120     3226     3298 1
    5121     8471     9206 1
    5122     4025     4075 1
    5123     9192     9604 1
    5124     3303     2709 1
    5125     8970     7641 1
    5126    12398    13121 1
    5127     7977     9146 1
    5128     7304     7832 1
    5129     4213     4741 1
    5130     8276     9581 1
    5131    16280    16360 1
    5132     3569     2471 1
    5133    10750    11577 1
    5134     1618     1416 1
    5135    13784    14511 1
    5136     2087     2412 1
    5137    14801    14986 1
    5138     4676     4908 1
    5139     7354     7463 1
    5140       15     1405 1
    5141     1059      250 1
    5142     8362     8448 1
    5143     7372    10288 1
    5144       76     1761 1
    5145     1398     1477 1
    5146    14634    14683 1
    5147    10957    11189 1
    5148     4547     4851 1
    5149     7265     9945 1
    5150    14493    15220 1
    5151    15459    17120 1
    5152     1655      208 1
    5153     1735     1513 1
    5154     7631     9609 1
    5155    14718    15188 1
    5156    10819    11082 1
    5157    12356    12963 1
    5158       22      844 1
    5159     3941     4819 1
    5160     5726     6975 1
    5161    10109    11473 1
    5162      702     1417 1
    5163    14895    14910 1
    5164    13813    14475 1
    5165     5519     6617 1
    5166    15469    16242 1
    5167    16387    17149 1
    5168    15854    15986 1
    5169    15675    16023 1
    5170     1103      621 1
    5171     4210     5311 1
    5172     2587     2745 1
    5173      687     1326 1
    5174    14840    16448 1
    5175     8128     8712 1
    5176     4570     5207 1
    5177     6653     6772 1
    5178     9805    14521 1
    5179    12476    16936 1
    5180     1540      289 1
    5181    11211    11306 1
    5182     4112     5087 1
    5183    16258    16369 1
    5184     1817     2495 1
    5185    15566    16734 1
    5186    14085    14824 1
    5187    10496    11772 1
    5188     3471     2079 1
    5189    13587    16235 1
    5190     3138     2301 1
    5191    13754    13835 1
    5192     1535      444 1
    5193     1305      118 1
    5194    15602    16480 1
    5195    13941    14372 1
    5196    12189    13178 1
    5197     8965     5821 1
    5198      534      317 1
    5199     7283     9179 1
    5200    14271    15315 1
    5201     6145     7132 1
    5202     6405     7127 1
    5203    15955    15977 1
    5204     4036     4220 1
    5205     8361     8543 1
    5206    12577    13365 1
    5207     4953    11979 1
    5208     7529     9823 1
    5209     4043     4979 1
    5210     3526     2257 1
    5211     3285     1935 1
    5212    10254    11072 1
    5213    10804    11003 1
    5214    11482    11510 1
    5215    13032    13094 1
    5216     3694     4074 1
    5217    12181    13583 1
    5218     4450     5346 1
    5219     3842     5038 1
    5220    12379    13359 1
    5221     3009     3562 1
    5222    10782    10937 1
    5223     1118      551 1
    5224    15667    16518 1
    5225    15955    16296 1
    5226     7845     8631 1
    5227       60     1336 1
    5228    15603    16532 1
    5229     8944     7748 1
    5230     4152     4805 1
    5231     8564     8692 1
    5232    11284    11655 1
    5233     4717     4949 1
    5234    13733    15137 1
    5235     6032     6334 1
    5236     8541     9887 1
    5237     8070     8207 1
    5238    13662    15258 1
    5239    16451    17037 1
    5240     5705     7100 1
    5241     8889     9317 1
    5242     6189     6859 1
    5243    16158    16213 1
    5244     7172     9450 1
    5245    16161    16499 1
    5246    15691    16658 1
    5247    10421    11281 1
    5248    11090    11816 1
    5249     7562     7917 1
    5250    10763    11418 1
    5251    12724    13518 1
    5252    15440    17155 1
    5253    11173    11210 1
    5254    12004    12897 1
    5255     3050     3092 1
    5256     6478     7031 1
    5257      626     1764 1
    5258    14767    14955 1
    5259     5721     5890 1
    5260    12127    12988 1
    5261    11193    11706 1
    5262     5584     6168 1
    5263     7069     7145 1
    5264     8866     7782 1
    5265     5434     7093 1
    5266    13838    14014 1
    5267    16125    17180 1
    5268     3950     4122 1
    5269    15758    15873 1
    5270    10999    11673 1
    5271    16262    16928 1
    5272    12808    13414 1
    5273    12097    12276 1
    5274     3054     2482 1
    5275    12845    13208 1
    5276       62     1176 1
    5277    13793    14109 1
    5278     8162     9751 1
    5279    15909    16878 1
    5280     9065     9786 1
    5281     8580     8715 1
    5282    15522    16960 1
    5283     8876     9584 1
    5284    15740    16792 1
    5285    14155    15186 1
    5286     8083     8159 1
    5287     3254     2632 1
    5288    14996    15036 1
    5289     7950     9089 1
    5290     1147      216 1
    5291    12958    13363 1
    5292     7298     9079 1
    5293    13238    13524 1
    5294    10172    11482 1
    5295     9259     9502 1
    5296     6182     6750 1
    5297     3166     1822 1
    5298    11661    15587 1
    5299     3615     4048 1
    5300    13925    14713 1
    5301    10398    10791 1
    5302     8280    11260 1
    5303     2851     2147 1
    5304    10691    11505 1
    5305    13484    13569 1
    5306     4021     5157 1
    5307      630      169 1
    5308    14151    14893 1
    5309     8183     9469 1
    5310    11415    11838 1
    5311     9405     9769 1
    5312      784     1510 1
    5313     7266     7735 1
    5314    13392    13567 1
    5315    13734    14140 1
    5316     1272      296 1
    5317     4346     4568 1
    5318     5605     5994 1
    5319    11681    11836 1
    5320    16030    16716 1
    5321     1231     1719 1
    5322     1088      785 1
    5323    15969    16221 1
    5324     3421     2749 1
    5325      944      862 1
    5326    12536    12950 1
    5327       65      192 1
    5328     4697     4482 1
    5329    16396    17022 1
    5330        4      738 1
    5331    13945    14180 1
    5332     5261    16102 1
    5333     4645     4509 1
    5334     1236      217 1
    5335     3673     4754 1
    5336     5719     7087 1
    5337    12786    13071 1
    5338    14157    14676 1
    5339     5703     5755 1
    5340     4894    11337 1
    5341     3890     3897 1
    5342     1742     5073 1
    5343    12086    13341 1
    5344     3176     3563 1
    5345     7787     7917 1
    5346    13931    14400 1
    5347    14418    14668 1
    5348     8756     9709 1
    5349    11087    11273 1
    5350     9240     9697 1
    5351    10192    10890 1
    5352    15541    17152 1
    5353     7424     9449 1
    5354    10482    10490 1
    5355    10060    11110 1
    5356     6294     6828 1
    5357    10306    10326 1
    5358    10944    11651 1
    5359    13917    15348 1
    5360    16538    17080 1
    5361     9047     9773 1
    5362      566     1424 1
    5363    14523    15161 1
    5364    15450    17060 1
    5365    10179    10545 1
    5366    13963    14322 1
    5367     3620     4557 1
    5368     3789     4720 1
    5369     2944     1974 1
    5370    13167    13395 1
    5371    16457    16544 1
    5372    11571    11833 1
    5373     8797     9276 1
    5374     6381     6572 1
    5375    10826    10839 1
    5376     7616     7857 1
    5377    15775    15943 1
    5378    16282    16904 1
    5379    12786    13610 1
    5380     8976     7241 1
    5381    15772    16564 1
    5382     3230     3256 1
    5383      134      253 1
    5384     6625     6841 1
    5385    11021    11623 1
    5386      607     1495 1
    5387     5415     7120 1
    5388     2016     1805 1
    5389    15851    16672 1
    5390     4756     4583 1
    5391    14619    14825 1
    5392     5739     6435 1
    5393     1174     1175 1
    5394     5604     6862 1
    5395     5594     6353 1
    5396    13723    15358 1
    5397     7420     9199 1
    5398     6182     7116 1
    5399     5393     6389 1
    5400     3605     3775 1
    5401    11984    13864 1
    5402     3729     5080 1
    5403     1583      294 1
    5404     5766     6032 1
    5405    13756    14702 1
    5406     5742     7119 1
    5407     1272      492 1
    5408    14168    15151 1
    5409     8240     9997 1
    5410     4106     4985 1
    5411    13051    13546 1
    5412    14272    14758 1
    5413     5971    11156 1
    5414     3854     4525 1
    5415     4144     4156 1
    5416     7988     8349 1
    5417    15475    15621 1
    5418     4131     4642 1
    5419     4237     4365 1
    5420     7534     9848 1
    5421    14066    14578 1
    5422     5665     6132 1
    5423    15629    15757 1
    5424     8411     9273 1
    5425     4144     4681 1
    5426    12751    13020 1
    5427     5569     6496 1
    5428    14248    14629 1
    5429     2000     1888 1
    5430    10296    10997 1
    5431     3058     2248 1
    5432    15531    16292 1
    5433     3415     8621 1
    5434     9351     9720 1
    5435     2887     3118 1
    5436      948     1763 1
    5437    10396    10648 1
    5438    12573    13606 1
    5439    15504    15929 1
    5440     1005     1366 1
    5441     3246     2625 1
    5442     5583     6593 1
    5443    10786    11816 1
    5444     4266     5107 1
    5445    14790    15055 1
    5446     8948     7561 1
    5447     7964     9145 1
    5448     4742     4488 1
    5449       51      442 1
    5450    16801    17068 1
    5451     8473     9547 1
    5452     4296     4533 1
    5453    15731    16059 1
    5454    12401    13082 1
    5455    13781    15023 1
    5456    16238    17050 1
    5457    16913    16965 1
    5458    10185    10950 1
    5459     8915     9053 1
    5460     6071     6179 1
    5461     7477     9237 1
    5462    14229    14734 1
    5463    15687    16210 1
    5464    15711    16762 1
    5465     2876     3502 1
    5466     5803     6145 1
    5467     5413     5643 1
    5468      996     1776 1
    5469     8720     9795 1
    5470     2128     2703 1
    5471     5926     7100 1
    5472    13059    13312 1
    5473     5920     6260 1
    5474    11994    13344 1
    5475    14003    14984 1
    5476    10903    11523 1
    5477    12999    13095 1
    5478    12223    12481 1
    5479      370     1759 1
    5480     8696     9670 1
    5481     7503     8107 1
    5482     9601     9894 1
    5483     1226      182 1
    5484     8016     9954 1
    5485     4093     5304 1
    5486     1051      178 1
    5487    12961    13359 1
    5488     5673     5757 1
    5489     1180      473 1
    5490     7188     8422 1
    5491     6600     7113 1
    5492     7731     8627 1
    5493     8773     9463 1
    5494      375      473 1
    5495     4105     4444 1
    5496    14790    15033 1
    5497     8358     9225 1
    5498     3196     2401 1
    5499     9405     9918 1
    5500    11847    13407 1
    5501     5691     6045 1
    5502     3131     1956 1
    5503     5451     5726 1
    5504    15765    16771 1
    5505     3638     4761 1
    5506    11884    12319 1
    5507     8611    10038 1
    5508    16225    16893 1
    5509    13652    14034 1
    5510    11521    11722 1
    5511     4411     4998 1
    5512     5419     6676 1
    5513     5746     5770 1
    5514     4051     5015 1
    5515    11909    12964 1
    5516    13117    13405 1
    5517    15920    16802 1
    5518     8310     9820 1
    5519     3116     3138 1
    5520    10744    11087 1
    5521     3295     2621 1
    5522    12748    13374 1
    5523      661     1483 1
    5524    13958    15396 1
    5525    16000    16854 1
    5526     5401     6425 1
    5527    12226    13055 1
    5528     4922     5150 1
    5529     1627     1694 1
    5530     4081     4409 1
    5531     4703     5075 1
    5532    13707    14025 1
    5533     4286     4932 1
    5534     5672     6404 1
    5535    14004    15119 1
    5536     7346     9546 1
    5537     6083     7084 1
    5538      778      210 1
    5539     7496     7629 1
    5540     6184     6745 1
    5541     7161     9837 1
    5542      634     5074 1
    5543    16157    16667 1
    5544     5558     6632 1
    5545      516     1661 1
    5546      764     1450 1
    5547     8419     8847 1
    5548     3436     1793 1
    5549    10118    11651 1
    5550     6116     7033 1
    5551    16153    17134 1
    5552     2607     2718 1
    5553     8676     9077 1
    5554    12695    12716 1
    5555     6477     7018 1
    5556     3640     4696 1
    5557    10978    11496 1
    5558     6086     6141 1
    5559     3519     2129 1
    5560     1299      451 1
    5561     8074     8159 1
    5562    10582    10852 1
    5563    14812    14928 1
    5564     5581     6459 1
    5565    12794    13214 1
    5566     3650     5298 1
    5567    12012    12122 1
    5568     3753     5117 1
    5569     2790     1996 1
    5570    16458    16932 1
    5571     9027     9039 1
    5572     4869     5355 1
    5573     5818     6325 1
    5574     7831     9587 1
    5575    10180    11456 1
    5576    14088    14522 1
    5577    11932    12344 1
    5578     3641     5172 1
    5579     6614    13547 1
    5580    12369    12447 1
    5581     6887     6940 1
    5582     7233     7882 1
    5583    12449    13087 1
    5584    16548    17088 1
    5585    14254    15242 1
    5586     5543     6258 1
    5587     8271    13886 1
    5588      788     1399 1
    5589     3592     4235 1
    5590    14071    14698 1
    5591    15674    16910 1
    5592    14596    15286 1
    5593    13667    14468 1
    5594     2908     3141 1
    5595     7583     9320 1
    5596     9391     9404 1
    5597    16046    16775 1
    5598    15658    17156 1
    5599     7193     8516 1
    5600    14510    14704 1
    5601    12537    16108 1
    5602     5560     6284 1
    5603    15667    16385 1
    5604    13857    15086 1
    5605     3328     3567 1
    5606     8272     8800 1
    5607     5945    12534 1
    5608     3600     4742 1
    5609    15966    16989 1
    5610     7287     8625 1
    5611    12256    12474 1
    5612    13693    14244 1
    5613     1726      433 1
    5614     7165     7654 1
    5615    16198    16671 1
    5616     6085     6595 1
    5617    13320    13417 1
    5618     9202     9394 1
    5619    15113    15210 1
    5620     7286     9425 1
    5621    16492    16852 1
    5622    16911    17009 1
    5623     4072     4951 1
    5624     5919     6747 1
    5625    10698    10908 1
    5626     6366     6763 1
    5627     2925     2022 1
    5628     3443     1978 1
    5629     4250     4284 1
    5630     2993     2281 1
    5631     2811     1795 1
    5632    15925    16895 1
    5633     4420     4499 1
    5634     8152     8767 1
    5635     6004     6105 1
    5636    16427    17214 1
    5637     7457     8471 1
    5638    16831    17073 1
    5639     7555     9436 1
    5640     6770     6929 1
    5641     2889     3430 1
    5642     8795     9607 1
    5643    14247    15312 1
    5644     6462     8176 1
    5645     3744     5250 1
    5646     8278     8772 1
    5647     4218     5028 1
    5648     3241     2419 1
    5649     8827     9101 1
    5650     1018      200 1
    5651     5910     6182 1
    5652    12740    12948 1
    5653     2150     1943 1
    5654    15525    15844 1
    5655     3233     2011 1
    5656    16031    16216 1
    5657     7332     9327 1
    5658     5597     5651 1
    5659     1296     1735 1
    5660     8542     9748 1
    5661     4958     5277 1
    5662    12832    13495 1
    5663     5988    11564 1
    5664      760     1607 1
    5665    11305    11825 1
    5666    14175    14879 1
    5667     3759     4680 1
    5668     7417     9981 1
    5669    14741    14972 1
    5670    10749    11796 1
    5671     5826     6006 1
    5672    12852    13122 1
    5673     4858    16755 1
    5674     8052     9925 1
    5675    11882    12081 1
    5676    11036    11252 1
    5677    12383    12409 1
    5678    10603    11704 1
    5679      521     1322 1
    5680     6008     6674 1
    5681     5538     5926 1
    5682     8348     9348 1
    5683    11982    12180 1
    5684    10221    11686 1
    5685    12342    13372 1
    5686    15928    16611 1
    5687    12032    13511 1
    5688    15078    15149 1
    5689    13755    15178 1
    5690    12458    13518 1
    5691     8930     8127 1
    5692    12316    13022 1
    5693    13922    15127 1
    5694     7446     9862 1
    5695    13717    14871 1
    5696    10088    10923 1
    5697     2156     2431 1
    5698    10075    10459 1
    5699     3470     1818 1
    5700    13851    14935 1
    5701     9017     7707 1
    5702    16949    17026 1
    5703    12232    12811 1
    5704    12283    13563 1
    5705    11377    11762 1
    5706     7813     9672 1
    5707     6541     7048 1
    5708    15879    16537 1
    5709     8279     8596 1
    5710    13927    15321 1
    5711    10412    11772 1
    5712     4068     4228 1
    5713    14570    15330 1
    5714     8959     8132 1
    5715    12577    12602 1
    5716    14058    15249 1
    5717     1083      457 1
    5718     5938     6910 1
    5719    11251    11585 1
    5720    14283    15058 1
    5721    13654    14479 1
    5722     2971     2453 1
    5723    13475    13555 1
    5724     5466     6129 1
    5725       83      230 1
    5726     7856     9350 1
    5727    10443    10575 1
    5728     9142     9230 1
    5729    10378    11400 1
    5730     4061     4412 1
    5731    13949    14922 1
    5732     6419     7040 1
    5733     3583     3881 1
    5734    12173    13013 1
    5735    12727    12922 1
    5736     8010     9849 1
    5737     3866     4817 1
    5738    10085    11674 1
    5739    12094    13428 1
    5740    10063    11084 1
    5741     3253     2421 1
    5742      999      723 1
    5743     3690     5239 1
    5744    14432    14642 1
    5745    16814    16994 1
    5746     2827     3547 1
    5747    12711    13185 1
    5748     3425     2751 1
    5749     4271     4843 1
    5750     2778     2454 1
    5751    14647    14919 1
    5752    14607    15274 1
    5753    13956    14936 1
    5754     8991     8667 1
    5755     4268     4884 1
    5756     5752     6397 1
    5757     3933     5237 1
    5758    15922    15950 1
    5759       78     1421 1
    5760    14536    14787 1
    5761     8940     7282 1
    5762     4203     4768 1
    5763     6171     6344 1
    5764     8844     9606 1
    5765    10164    10914 1
    5766    16580    17113 1
    5767     2792     1976 1
    5768     8069    11818 1
    5769     3481     2091 1
    5770     3699     4977 1
    5771     3383     2734 1
    5772    14554    14807 1
    5773     3471     2358 1
    5774     3316     3437 1
    5775     8551     9489 1
    5776    15809    17188 1
    5777     1495     1496 1
    5778    13657    15042 1
    5779     8117     9283 1
    5780     5403     5492 1
    5781     8619     9482 1
    5782     1375      339 1
    5783    16104    16406 1
    5784     9250     9539 1
    5785    11931    13271 1
    5786     3588     4269 1
    5787    15502    16192 1
    5788    16119    16762 1
    5789     5631     6444 1
    5790     6587     7142 1
    5791    16309    16947 1
    5792     5616     6494 1
    5793     2833     3567 1
    5794    10567    10705 1
    5795     7427     9692 1
    5796      841     1511 1
    5797     1705     1377 1
    5798    12337    12703 1
    5799     3244     2103 1
    5800    11118    11122 1
    5801     8795     9727 1
    5802    15994    16804 1
    5803     6698     6985 1
    5804     7651     9899 1
    5805    10766    11468 1
    5806    14315    14787 1
    5807    13920    15206 1
    5808    14388    14525 1
    5809     2817     3550 1
    5810     6498     6924 1
    5811     7826     9591 1
    5812    10759    11469 1
    5813     4310    10292 1
    5814    16550    16590 1
    5815    12113    12924 1
    5816    10578    10914 1
    5817     3259     3537 1
    5818      826      477 1
    5819    10418    11582 1
    5820     1166     1770 1
    5821      692     1631 1
    5822     5659     7128 1
    5823    10630    10792 1
    5824    16321    16832 1
    5825    14157    14968 1
    5826    12419    13021 1
    5827     8271     8446 1
    5828    10596    10623 1
    5829     3755     4800 1
    5830     3032     3170 1
    5831     2798     1423 1
    5832    16150    16906 1
    5833     3001     3452 1
    5834    15728    16893 1
    5835     3859     4856 1
    5836     5810     5998 1
    5837    15491    16610 1
    5838     3610     5232 1
    5839    16188    16282 1
    5840       83     1486 1
    5841    12514    12837 1
    5842    13727    14007 1
    5843    14903    15234 1
    5844    12231    12364 1
    5845    14264    15226 1
    5846     5571     6138 1
    5847     6312     6832 1
    5848     8443     9346 1
    5849     8317     9160 1
    5850    10281    10579 1
    5851    16698    16776 1
    5852      861     1183 1
    5853      715     1271 1
    5854     3839     4057 1
    5855    14150    14748 1
    5856     5660     6558 1
    5857     6196     6702 1
    5858    10572    11029 1
    5859     4238     4773 1
    5860     2161     2362 1
    5861     3373     2234 1
    5862     6341     6770 1
    5863    10073    11582 1
    5864     7280     8056 1
    5865    12584    12651 1
    5866    15962    16848 1
    5867     1254      158 1
    5868     9225     9352 1
    5869    15500    16584 1
    5870     1502      407 1
    5871    15545    17102 1
    5872     1923     2616 1
    5873     3827     3828 1
    5874     2760     2785 1
    5875    10195    10858 1
    5876    14082    14937 1
    5877     5441     6173 1
    5878    11918    12256 1
    5879     3805     4194 1
    5880     3120     3323 1
    5881      602     1414 1
    5882    15685    16778 1
    5883      519     1731 1
    5884     7862     7874 1
    5885    12422    12979 1
    5886     7126     7136 1
    5887     1475     1750 1
    5888     4821     4959 1
    5889    15455    16302 1
    5890    14232    14418 1
    5891    12804    13127 1
    5892     6053     6470 1
    5893    15820    16334 1
    5894     7775     8540 1
    5895     7173     8515 1
    5896    15434    15717 1
    5897    10474    11158 1
    5898    15516    15933 1
    5899    14399    14875 1
    5900       88     1429 1
    5901    13200    13240 1
    5902     3833     4350 1
    5903     6726     7066 1
    5904     6065     6498 1
    5905     7238     7998 1
    5906     8645     9299 1
    5907     3911     5214 1
    5908     3388     1853 1
    5909     1400     1428 1
    5910     7793     9158 1
    5911     3081     3522 1
    5912     3184     2532 1
    5913    14394    14608 1
    5914    14319    15146 1
    5915     1286      486 1
    5916    15748    16082 1
    5917     9261     9367 1
    5918     5976     7042 1
    5919     3824     4239 1
    5920     4445     4586 1
    5921     6908     7148 1
    5922    15845    16363 1
    5923     8188     9929 1
    5924    14715    15365 1
    5925     7470     9331 1
    5926    15539    16639 1
    5927     2076     4930 1
    5928    16285    16534 1
    5929    12162    12401 1
    5930     7942     8492 1
    5931       90     1376 1
    5932     8023     8586 1
    5933    15703    16232 1
    5934     4091     4766 1
    5935     4060     4633 1
    5936     6121     6414 1
    5937    15817    16402 1
    5938     1217     1282 1
    5939    10655    11075 1
    5940    16179    16921 1
    5941      678      393 1
    5942    14188    15376 1
    5943      588      198 1
    5944     6075     6466 1
    5945     3614     4214 1
    5946     7343     7678 1
    5947    15503    15788 1
    5948     8879     9589 1
    5949     4675     5209 1
    5950     6032     6854 1
    5951    15728    16630 1
    5952     6403     6595 1
    5953     5858     6571 1
    5954     8993     8845 1
    5955    10229    11611 1
    5956    13006    13398 1
    5957    13801    14188 1
    5958     9424    10040 1
    5959    11957    13559 1
    5960    14528    14980 1
    5961    12034    13002 1
    5962     3327     1907 1
    5963     6644     6953 1
    5964     3112     1984 1
    5965    14063    14939 1
    5966    12090    13319 1
    5967     5367     5970 1
    5968    12154    12618 1
    5969     7467     9771 1
    5970    12088    12503 1
    5971    11009    11765 1
    5972    15173    15191 1
    5973    15987    16502 1
    5974    10214    10561 1
    5975     6229     6992 1
    5976     9177     9907 1
    5977      895    12461 1
    5978    14206    14368 1
    5979    16020    16262 1
    5980     3986     4052 1
    5981      548     1652 1
    5982    12520    14327 1
    5983     7548     8804 1
    5984    10131    10450 1
    5985    14444    14952 1
    5986    12089    12773 1
    5987     7388     9529 1
    5988     3070     2744 1
    5989     3617     5152 1
    5990     7356     9865 1
    5991    13267    13415 1
    5992       42      718 1
    5993     4755     4485 1
    5994     8958     8108 1
    5995      515     1353 1
    5996     8413     8443 1
    5997     5957     6458 1
    5998     3595     3711 1
    5999     8169     9525 1
    6000    14807    15285 1
    6001     6445    12081 1
    6002     1993    14423 1
    6003    16380    16954 1
    6004    12333    12842 1
    6005     2978     2350 1
    6006     3761     4358 1
    6007    12510    16315 1
    6008     3063     3084 1
    6009    10289    11735 1
    6010    11038    11371 1
    6011    13597    14039 1
    6012     7931     8591 1
    6013      852      401 1
    6014     3578     5135 1
    6015    14808    15269 1
    6016    12397    13440 1
    6017    10617    11671 1
    6018     5530     6698 1
    6019    12285    13214 1
    6020     5593     5980 1
    6021     8641     8760 1
    6022    12453    12455 1
    6023     1095     1646 1
    6024     3282     2027 1
    6025     6163     7096 1
    6026    14433    14843 1
    6027     8798     8825 1
    6028     8310     9446 1
    6029     6146     6430 1
    6030     2767     2317 1
    6031     2849     2188 1
    6032    16454    16826 1
    6033    15912    17208 1
    6034    15528    16935 1
    6035    13897    14266 1
    6036     5981     6846 1
    6037     8134     8480 1
    6038     6182     6292 1
    6039     6130     6170 1
    6040     2814     3073 1
    6041     3898     4050 1
    6042     4063     4571 1
    6043     7387     7625 1
    6044    10585    10993 1
    6045    10505    11550 1
    6046     8851     9308 1
    6047     3755     5050 1
    6048     4361     4443 1
    6049     3587     5291 1
    6050    16922    17120 1
    6051     1067      728 1
    6052     1309      419 1
    6053    14466    15130 1
    6054     5521     5869 1
    6055    15634    16522 1
    6056     3292     2182 1
    6057     4796     5173 1
    6058       72     1222 1
    6059     6193     6970 1
    6060     3918     4919 1
    6061     8758     9814 1
    6062     3200     2430 1
    6063     8805     9818 1
    6064     2837     3034 1
    6065    15861    16736 1
    6066    16601    17040 1
    6067     4045     4753 1
    6068    14799    15348 1
    6069     8299     9090 1
    6070    13904    14987 1
    6071     7465     7537 1
    6072    10255    11788 1
    6073     3825     3844 1
    6074    15756    15998 1
    6075    12103    13244 1
    6076      635      680 1
    6077     8602     9426 1
    6078     3766     5310 1
    6079     7581     8851 1
    6080    15464    15613 1
    6081     5633     6171 1
    6082    12356    13480 1
    6083    15893    16078 1
    6084     7899     8035 1
    6085     8106     8121 1
    6086     4383     4554 1
    6087      681      253 1
    6088     1112      128 1
    6089    12057    12817 1
    6090     6291     6843 1
    6091    11666    11686 1
    6092     2067     2667 1
    6093    12772    13565 1
    6094     6153     6845 1
    6095     5799     6644 1
    6096    13441    15378 1
    6097     8961     8991 1
    6098     2250     2336 1
    6099     6600     6987 1
    6100     8921    10040 1
    6101    10353    10824 1
    6102     3370     2638 1
    6103    15307    15322 1
    6104     3950     5333 1
    6105    15714    16562 1
    6106     3061     3326 1
    6107    13964    15420 1
    6108     6444     7009 1
    6109    12117    12931 1
    6110     3228     2412 1
    6111     7300     9535 1
    6112     5846     6320 1
    6113     9056     8079 1
    6114    13749    14839 1
    6115    12661    13311 1
    6116     7622     9120 1
    6117     1230      222 1
    6118     9423    10053 1
    6119    17011    17138 1
    6120     4818     4416 1
    6121     3890     4109 1
    6122     5649     6934 1
    6123     7591     9287 1
    6124     4264     5054 1
    6125     2834     2323 1
    6126     9644     9903 1
    6127    12620    13179 1
    6128     5552     5973 1
    6129    16037    16215 1
    6130    16586    16854 1
    6131     6029    12475 1
    6132     8292     8587 1
    6133    10682    10961 1
    6134     3818     4233 1
    6135    16385    17031 1
    6136    12584    12820 1
    6137    10731    11030 1
    6138     3514     1882 1
    6139    15950    16407 1
    6140    15692    16288 1
    6141    13791    14693 1
    6142      928     1399 1
    6143     2395     2397 1
    6144    12719    13619 1
    6145     7271     8329 1
    6146     7608     8367 1
    6147    12076    12835 1
    6148     7665     8049 1
    6149     3874     4069 1
    6150     8103     8389 1
    6151    13724    13740 1
    6152     7846     9349 1
    6153     7796     7832 1
    6154     6913     7073 1
    6155    13852    15229 1
    6156     5394     7023 1
    6157     5579     6864 1
    6158     7309     8003 1
    6159     1568     1785 1
    6160    12020    12941 1
    6161     4180     5167 1
    6162    14349    14540 1
    6163    13823    14646 1
    6164     1939     7170 1
    6165     6420     7132 1
    6166    15459    16173 1
    6167     8479     9621 1
    6168     2037     2080 1
    6169     3203     2354 1
    6170    10616    11048 1
    6171    12459    12850 1
    6172    13815    15252 1
    6173     5578     6599 1
    6174     7443     7753 1
    6175     3827     4005 1
    6176     3866     4721 1
    6177    12793    13010 1
    6178     1146     1173 1
    6179     9046     7370 1
    6180     6638     6790 1
    6181     5755     7089 1
    6182     4377     4651 1
    6183     8524     8540 1
    6184     9301     9777 1
    6185     7535     9391 1
    6186    15856    16522 1
    6187     7804     9612 1
    6188     3466     2372 1
    6189    13776    15365 1
    6190    12759    13476 1
    6191     8226     9539 1
    6192     3412     2222 1
    6193     1011      315 1
    6194     6220     6303 1
    6195    10526    11458 1
    6196    11062    11627 1
    6197     7297     9882 1
    6198    15563    16762 1
    6199    10733    11431 1
    6200     6602     6866 1
    6201     3056     2498 1
    6202     7416     9306 1
    6203    10892    10915 1
    6204    15579    16306 1
    6205      789      873 1
    6206     1101     2334 1
    6207    12948    13293 1
    6208     6895     7147 1
    6209      666      280 1
    6210    13992    14314 1
    6211     3980     4324 1
    6212     7458     8005 1
    6213    16269    17053 1
    6214     1362     1506 1
    6215     8162     9593 1
    6216    16322    17069 1
    6217     7411     9807 1
    6218     4666     4869 1
    6219    15842    16063 1
    6220     8211     8727 1
    6221     6363     6804 1
    6222      994      414 1
    6223    10351    11087 1
    6224    13831    14031 1
    6225    15647    16344 1
    6226     6350     6468 1
    6227     9609     9711 1
    6228     7915     9495 1
    6229     3191     3239 1
    6230    15076    15269 1
    6231     3682     3882 1
    6232    14568    15114 1
    6233     5784     6282 1
    6234     1400      195 1
    6235     1553     1521 1
    6236    16238    16760 1
    6237      685      330 1
    6238     4408     5252 1
    6239     7177     9457 1
    6240     3529     1502 1
    6241     5627     5928 1
    6242     3161     1875 1
    6243     1162     1616 1
    6244     8980     7710 1
    6245     4194     5285 1
    6246    13039    13376 1
    6247     1124     1356 1
    6248     4054    10613 1
    6249    13923    15113 1
    6250    16123    16916 1
    6251     7887     9875 1
    6252     6324     6952 1
    6253     4068     5335 1
    6254     8336     9351 1
    6255    10511    11019 1
    6256    11149    11348 1
    6257     5659     6799 1
    6258     3823     4631 1
    6259     5687     6025 1
    6260     9933    10010 1
    6261     8926     9235 1
    6262    14511    14596 1
    6263     7896     9597 1
    6264    12091    12312 1
    6265    10955    11728 1
    6266      128      195 1
    6267     3870     5334 1
    6268     3301     2219 1
    6269     7193     7329 1
    6270     8570     9555 1
    6271      720      652 1
    6272     8112     8760 1
    6273     1139     1147 1
    6274    15621    16886 1
    6275     5556     6764 1
    6276     2044     2120 1
    6277    10581    10831 1
    6278    14187    14707 1
    6279    10877    11769 1
    6280    13770    14932 1
    6281    14456    14813 1
    6282     3409     1816 1
    6283     8730     9557 1
    6284     8897     7488 1
    6285    10123    10504 1
    6286     4126     4730 1
    6287     5611     6294 1
    6288       99      942 1
    6289     3187     2044 1
    6290     8803     9704 1
    6291    12539    12633 1
    6292    10612    11792 1
    6293    15792    16573 1
    6294    15482    15937 1
    6295        5      572 1
    6296     6512     6848 1
    6297    14796    15174 1
    6298      880      310 1
    6299    11003    11047 1
    6300     8062     9326 1
    6301     2990     2425 1
    6302     6124    10382 1
    6303    10964    11232 1
    6304    11640    11702 1
    6305     8000     8608 1
    6306     3061     3329 1
    6307    13785    14674 1
    6308     9196     9468 1
    6309    10235    10539 1
    6310     7469     8821 1
    6311     3808     4525 1
    6312    15560    16216 1
    6313    13975    15209 1
    6314     2763     3308 1
    6315    10132    10563 1
    6316    10512    10570 1
    6317     8528     9934 1
    6318     7864     9285 1
    6319     6726     6870 1
    6320    15673    16014 1
    6321    11380    11528 1
    6322    16964    17219 1
    6323     4269     4419 1
    6324    15949    16627 1
    6325     6189     7144 1
    6326      924     1549 1
    6327     2456     2690 1
    6328     3383     2390 1
    6329    15838    16410 1
    6330      805     1527 1
    6331     7602     8460 1
    6332    15497    16805 1
    6333      309      108 1
    6334     5406     5409 1
    6335     1871     1913 1
    6336     7627     9197 1
    6337       94       60 1
    6338    12463    13557 1
    6339     9536    11777 1
    6340    14125    15290 1
    6341     1961     2349 1
    6342    10832    11744 1
    6343    14919    15092 1
    6344    15733    16806 1
    6345     7495     9441 1
    6346    12078    13526 1
    6347    14179    15288 1
    6348    10886    11121 1
    6349       41     1001 1
    6350     3823     4505 1
    6351     2808     2062 1
    6352     5585     5711 1
    6353     7780     7954 1
    6354    12021    12620 1
    6355     9114     9626 1
    6356    10811    11762 1
    6357     2769     1857 1
    6358     7083     7131 1
    6359     9387     9811 1
    6360     4658     5230 1
    6361     3956     4987 1
    6362     3184     2707 1
    6363     9491     9674 1
    6364      599      322 1
    6365    13183    13384 1
    6366    12647    13370 1
    6367     1301      432 1
    6368     1351      394 1
    6369     4646     4525 1
    6370     5899     6960 1
    6371     2025     2071 1
    6372    10399    11396 1
    6373     3286     2193 1
    6374    15922    16194 1
    6375    10069    11457 1
    6376     4180     4355 1
    6377     2887     2054 1
    6378     6228     6448 1
    6379     4581     4988 1
    6380    10347    11059 1
    6381      472     1739 1
    6382      747     1433 1
    6383    11993    12488 1
    6384     3962     4607 1
    6385    13993    15165 1
    6386    10821    11503 1
    6387     9349    10049 1
    6388     2111     2448 1
    6389     5788     6037 1
    6390    15487    15927 1
    6391    11230    11635 1
    6392     3596     4077 1
    6393     3656     4978 1
    6394     6043     6596 1
    6395    14665    15350 1
    6396     7866     8152 1
    6397     5700     7152 1
    6398    14638    14998 1
    6399    12011    13477 1
    6400     5621     6138 1
    6401     3790     4810 1
    6402     1274      317 1
    6403     1197     1524 1
    6404    11879    13504 1
    6405    13832    14902 1
    6406     5051     5103 1
    6407    14237    14417 1
    6408    15672    16092 1
    6409     3147     2731 1
    6410    11221    11277 1
    6411    10125    10881 1
    6412    10624    11632 1
    6413      355      383 1
    6414      489      124 1
    6415     4855     5158 1
    6416     7531     7940 1
    6417    12073    12851 1
    6418     4217     5078 1
    6419    12848    13418 1
    6420     3107     2307 1
    6421     4005     4875 1
    6422     2539     2559 1
    6423     6500     6603 1
    6424     5701     6436 1
    6425    10781    11285 1
    6426    14805    14862 1
    6427     3721     4170 1
    6428    10968    11318 1
    6429    10318    10870 1
    6430     8044     9470 1
    6431     7194     7711 1
    6432     3739     4886 1
    6433    11865    12684 1
    6434     5380     6202 1
    6435     2320     1868 1
    6436    11244    11305 1
    6437    10580    11686 1
    6438    16424    16852 1
    6439     6145     6449 1
    6440    13073    13562 1
    6441     2107     2382 1
    6442    16704    17091 1
    6443    15648    16732 1
    6444     8232     9734 1
    6445     5941     6465 1
    6446    12098    12974 1
    6447     4198     5338 1
    6448     3547     2164 1
    6449     7476     7918 1
    6450    10123    16549 1
    6451     4499     5090 1
    6452      435      136 1
    6453    14516    15009 1
    6454     2826     2501 1
    6455    13123    13430 1
    6456     7432     9179 1
    6457    14194    14285 1
    6458    16740    17052 1
    6459     8720     9758 1
    6460     7614     9708 1
    6461     7290     8450 1
    6462    13963    14091 1
    6463    13671    13868 1
    6464    14520    15312 1
    6465     8049     8476 1
    6466    11257    11816 1
    6467     2202     2712 1
    6468    16419    16537 1
    6469    12362    13096 1
    6470    12247    12656 1
    6471     7237     9485 1
    6472     8862     7538 1
    6473     5681     6807 1
    6474     5424     6484 1
    6475     8023     8072 1
    6476     9972    10900 1
    6477     5621     6766 1
    6478     2312     2578 1
    6479     4269     4362 1
    6480     2790     3168 1
    6481    11075    11634 1
    6482     7639     8821 1
    6483     2982     2181 1
    6484    16245    16538 1
    6485    10281    11488 1
    6486    11264    16130 1
    6487    15689    16280 1
    6488     5674     5991 1
    6489     2634     2736 1
    6490     6393     6582 1
    6491    12090    13529 1
    6492    12986    13330 1
    6493     7214     7453 1
    6494    13903    14756 1
    6495     1033      489 1
    6496     6052     6997 1
    6497     8501     9493 1
    6498       33      870 1
    6499     3657     4111 1
    6500    12431    12545 1
    6501     1211     1311 1
    6502     1108      693 1
    6503    14512    14984 1
    6504     5019     5044 1
    6505     7541     8257 1
    6506    15893    16333 1
    6507     6253     7102 1
    6508    15516    15860 1
    6509     5624     6768 1
    6510    12131    13236 1
    6511     8623     9642 1
    6512     2793     3065 1
    6513    15801    16781 1
    6514    10353    11487 1
    6515    14196    15369 1
    6516     3663     4354 1
    6517    16946    17172 1
    6518    10930    11397 1
    6519    14397    15087 1
    6520    10726    15683 1
    6521    10761    11190 1
    6522    12025    12623 1
    6523    15903    16510 1
    6524     7459     7600 1
    6525     7326     8818 1
    6526     5469     5670 1
    6527    10610    11372 1
    6528    15445    16304 1
    6529    10178    10273 1
    6530      753      251 1
    6531    14362    15400 1
    6532     4107     5113 1
    6533     6718     7007 1
    6534    14070    15357 1
    6535     8468     8846 1
    6536    14824    16288 1
    6537     2966     3197 1
    6538    11993    13227 1
    6539    14863    14960 1
    6540     9015     9193 1
    6541     3535     2604 1
    6542     4743     5203 1
    6543     7378     8407 1
    6544     3856     4457 1
    6545    10384    11225 1
    6546    12056    12849 1
    6547     3160     3520 1
    6548    13962    14148 1
    6549     7700     9403 1
    6550     7529     9985 1
    6551    12055    12898 1
    6552    10129    10469 1
    6553     6604    11537 1
    6554    16170    16722 1
    6555     1828     2501 1
    6556     9031     9483 1
    6557    16827    17215 1
    6558     5825     6636 1
    6559    16016    16242 1
    6560    15738    16310 1
    6561    12484    13621 1
    6562     6073     6176 1
    6563     6342     6888 1
    6564     9731     9792 1
    6565    12259    12772 1
    6566    10519    10955 1
    6567     6533     6748 1
    6568    11128    11842 1
    6569    13773    13961 1
    6570    14763    15397 1
    6571     4220     5215 1
    6572     2246     2357 1
    6573    10486    10990 1
    6574    14315    14872 1
    6575     3710     4233 1
    6576     4289     4474 1
    6577    15907    16257 1
    6578     3527     4417 1
    6579     3337     2203 1
    6580     1153     1683 1
    6581     1300     1683 1
    6582     7195     8613 1
    6583     3538     2166 1
    6584     9102     9767 1
    6585     3010     2692 1
    6586    10760    10809 1
    6587    14174    14888 1
    6588     3265     2172 1
    6589     6556     7080 1
    6590    13344    13532 1
    6591    16642    16703 1
    6592     1803     1822 1
    6593    15972    15998 1
    6594    15613    16540 1
    6595     6643     6821 1
    6596     2843     3071 1
    6597    15530    15643 1
    6598      693     1743 1
    6599    10941    11136 1
    6600     7944     9936 1
    6601     5513     6234 1
    6602     4478     5102 1
    6603    12516    13332 1
    6604    15519    15535 1
    6605    10501    11587 1
    6606     3320     2477 1
    6607    14986    15028 1
    6608     2773     3201 1
    6609     3453     2539 1
    6610    16572    17153 1
    6611    11933    13625 1
    6612    12207    13117 1
    6613    13802    15316 1
    6614    10201    10559 1
    6615    11176    11299 1
    6616      757     1667 1
    6617     3893     5015 1
    6618    14337    15120 1
    6619     9006     7871 1
    6620    15877    16100 1
    6621     8380     9799 1
    6622    14063    15152 1
    6623     7159     9131 1
    6624    14540    15077 1
    6625     7219     7699 1
    6626     7786     8652 1
    6627     1937     2358 1
    6628      985      811 1
    6629     5293     5310 1
    6630     2029     2443 1
    6631     3783     4209 1
    6632     9501    10025 1
    6633    10484    11465 1
    6634     3781     4707 1
    6635     3572     2407 1
    6636    14048    15188 1
    6637    11870    13277 1
    6638     1120      641 1
    6639     5528     6705 1
    6640      547      657 1
    6641     5033     5053 1
    6642     6233     6428 1
    6643     3725     4446 1
    6644    16142    16804 1
    6645    11031    11824 1
    6646    10307    10350 1
    6647    15476    15894 1
    6648     1016     1113 1
    6649     3049     1991 1
    6650      701      112 1
    6651    14394    15100 1
    6652     5516     6412 1
    6653     7289     7628 1
    6654     2854     4417 1
    6655    10349    11296 1
    6656    11920    12237 1
    6657     7385     9656 1
    6658    12438    13620 1
    6659     3902     4744 1
    6660     1192     1695 1
    6661     7235     7731 1
    6662    10875    11229 1
    6663     4880     5324 1
    6664     4783     5274 1
    6665      613     1561 1
    6666    13660    13937 1
    6667    10110    10337 1
    6668     4658     5138 1
    6669     9090     9927 1
    6670    14033    14876 1
    6671      727     1632 1
    6672     7470     9467 1
    6673    16176    16928 1
    6674    14186    14355 1
    6675    14131    15164 1
    6676    10328    10929 1
    6677     5653     7075 1
    6678     5370     6608 1
    6679    16594    16670 1
    6680     1177      184 1
    6681    14530    14615 1
    6682     4120     4457 1
    6683     5365     6317 1
    6684    12178    12584 1
    6685    15483    16359 1
    6686     8960    10765 1
    6687      891     1600 1
    6688     2850     2655 1
    6689     7560     7686 1
    6690     3520     2227 1
    6691    12411    13260 1
    6692     2820     2828 1
    6693    16524    17058 1
    6694     2266     2141 1
    6695    16124    16516 1
    6696     8511     9911 1
    6697     3415     1833 1
    6698     8936     8489 1
    6699    12120    12238 1
    6700     2809     2544 1
    6701    13044    13346 1
    6702    12446    12837 1
    6703    13927    14786 1
    6704    11959    13093 1
    6705     3092     3283 1
    6706     4297     4806 1
    6707     3664     4950 1
    6708    14470    15240 1
    6709     6627     9146 1
    6710     3134     2157 1
    6711      107      289 1
    6712    16193    16709 1
    6713    12598    13539 1
    6714    15744    16747 1
    6715    11945    12968 1
    6716     3057     2081 1
    6717    12308    12381 1
    6718     8353     9602 1
    6719     3095     2205 1
    6720     3649     4090 1
    6721     2201     1842 1
    6722    14692    14944 1
    6723     3135     1940 1
    6724     1236     1555 1
    6725     7707     8560 1
    6726     5594     6846 1
    6727    15366    16197 1
    6728     2918     1992 1
    6729     7468     8686 1
    6730     4719     4746 1
    6731    13718    14440 1
    6732    13988    15319 1
    6733    16232    16780 1
    6734     7945     9853 1
    6735     1191     1514 1
    6736     5970     6201 1
    6737    12372    12780 1
    6738      500      120 1
    6739    15725    16786 1
    6740    12135    13039 1
    6741     3193     3544 1
    6742     5421     6965 1
    6743     8117     9708 1
    6744     6149     6598 1
    6745     2286     1905 1
    6746     9040     7627 1
    6747     6450     6501 1
    6748     4240     2665 1
    6749    11263    11755 1
    6750     2102     2109 1
    6751    13729    15144 1
    6752     7821     9758 1
    6753    12074    13563 1
    6754    12334    12361 1
    6755    16091    16209 1
    6756    14289    15408 1
    6757     3327     1993 1
    6758     5728     5765 1
    6759     8312     8561 1
    6760     3930     4069 1
    6761    11601    11776 1
    6762     5696     5798 1
    6763    12179    12281 1
    6764    14445    14517 1
    6765    10818    11327 1
    6766     7241     9623 1
    6767     9077     9836 1
    6768     7280     8670 1
    6769    13669    13817 1
    6770    12733    13143 1
    6771     1179     1682 1
    6772     3757     5186 1
    6773     3358     2130 1
    6774      916     1182 1
    6775      983     1198 1
    6776    12794    13439 1
    6777    15458    16477 1
    6778     9095     9212 1
    6779     1116     1520 1
    6780     5787     6978 1
    6781    13850    15418 1
    6782     8501     8687 1
    6783    15448    15565 1
    6784    16262    17216 1
    6785    12788    13100 1
    6786     3079     2717 1
    6787     5724     6894 1
    6788     2187     2613 1
    6789    14607    15384 1
    6790    16010    16536 1
    6791     2032     2377 1
    6792    10197    10549 1
    6793     4638     5036 1
    6794    13902    14410 1
    6795     8992     7899 1
    6796    10138    10591 1
    6797    10449    11665 1
    6798     5762     6191 1
    6799     5653     6613 1
    6800     8978     7277 1
    6801    10768    11589 1
    6802     5046     5106 1
    6803    14328    15288 1
    6804    16216    16943 1
    6805     1017      875 1
    6806     7852     8557 1
    6807    15595    15706 1
    6808    15140    15191 1
    6809     2766     2537 1
    6810    13355    14762 1
    6811     9776    10723 1
    6812     3743     4132 1
    6813    11953    12849 1
    6814     3817     4207 1
    6815     9066     9857 1
    6816    15636    16976 1
    6817     1794     2738 1
    6818      488      176 1
    6819     3258     3319 1
    6820    16453    16644 1
    6821     9403     9957 1
    6822    14239    14806 1
    6823    10764    10798 1
    6824    16193    16898 1
    6825     7929     9350 1
    6826     1637     1395 1
    6827     8229     9474 1
    6828     5632     5643 1
    6829    12980    13082 1
    6830      755     1294 1
    6831     4584     5293 1
    6832    14302    14825 1
    6833     3619     3705 1
    6834     8475     8655 1
    6835    11172    11716 1
    6836    15796    17147 1
    6837     1152     1418 1
    6838     8549     9453 1
    6839     8864     8514 1
    6840     8865     9205 1
    6841     7484     8612 1
    6842    14189    14537 1
    6843    16343    16557 1
    6844    14439    14601 1
    6845    10397    10976 1
    6846    12901    13258 1
    6847    10089    10118 1
    6848    11970    13427 1
    6849    10908    11518 1
    6850     6003     6941 1
    6851     8384    10015 1
    6852     7473     8031 1
    6853    12072    13010 1
    6854     6195     7048 1
    6855      961      483 1
    6856     3117     3362 1
    6857     7181     8223 1
    6858    10143    11481 1
    6859    13852    14438 1
    6860     5756     6258 1
    6861    16867    16972 1
    6862     1493      381 1
    6863    12390    12664 1
    6864     5752     6957 1
    6865     8935     7940 1
    6866    11984    13103 1
    6867     3179     2073 1
    6868     8606     9355 1
    6869     1237      422 1
    6870     2902     2056 1
    6871     1531     1656 1
    6872    16379    16403 1
    6873    14292    15176 1
    6874     3782     5114 1
    6875     9621     9762 1
    6876     7910     9766 1
    6877     6069    11145 1
    6878      812     1428 1
    6879    13714    15042 1
    6880    10442    11802 1
    6881     6748     7072 1
    6882     4561     4989 1
    6883    12465    12665 1
    6884     3282     2326 1
    6885     5380     6354 1
    6886     2732     2749 1
    6887     7643     7877 1
    6888     9083     9755 1
    6889     2328     2660 1
    6890     7502    10044 1
    6891     6341     6832 1
    6892     4391     5198 1
    6893     3321     2494 1
    6894    11927    12066 1
    6895     7408     9163 1
    6896     9136    10008 1
    6897    10568    11177 1
    6898     8592     9741 1
    6899    16608    17035 1
    6900    12032    12629 1
    6901    12465    13630 1
    6902    15597    15988 1
    6903     7626     9116 1
    6904     9640     9735 1
    6905     1703     1429 1
    6906     3742     4751 1
    6907    12238    13040 1
    6908     4067     5033 1
    6909    12000    13352 1
    6910    12095    13484 1
    6911     2221     2382 1
    6912     6355     7142 1
    6913     9060     7563 1
    6914     7285     9780 1
    6915    10991    11044 1
    6916    11383    11405 1
    6917       36       17 1
    6918     3935     4510 1
    6919    13639    14666 1
    6920     8836     9760 1
    6921    12279    13468 1
    6922     5852     6730 1
    6923     3743     5254 1
    6924      811      882 1
    6925    13854    14218 1
    6926     6518     6902 1
    6927    10979    11808 1
    6928     4189     4829 1
    6929      445      476 1
    6930    12048    12303 1
    6931     6867     8209 1
    6932    16794    16834 1
    6933     9537     9949 1
    6934     5914     6776 1
    6935     3703     4828 1
    6936       99      906 1
    6937    13685    14599 1
    6938     4213     4693 1
    6939     8280     9407 1
    6940    13433    13602 1
    6941    14360    15268 1
    6942     5641     6027 1
    6943     3844     3855 1
    6944     8054     9686 1
    6945     3648     5256 1
    6946    10192    10391 1
    6947     7390     8363 1
    6948      523      546 1
    6949     5635     6451 1
    6950    10694    11295 1
    6951     3195     2341 1
    6952     7430     9887 1
    6953     8894     7160 1
    6954     1006     1471 1
    6955    10089    16033 1
    6956     9234     9586 1
    6957    10465    11567 1
    6958     3596     3686 1
    6959      732     1127 1
    6960    10953    11162 1
    6961     8958     9027 1
    6962     9035     8478 1
    6963     4805     5291 1
    6964    13276    13402 1
    6965      635      267 1
    6966     8050     9240 1
    6967      991     1107 1
    6968      938      776 1
    6969      703      752 1
    6970    10664    11222 1
    6971     8286     8357 1
    6972     4428     5063 1
    6973    16626    17130 1
    6974    11133    11780 1
    6975    14020    14505 1
    6976     8068     9193 1
    6977     2088     2114 1
    6978      438     1827 1
    6979     1736      287 1
    6980    10538    11295 1
    6981     5623     6208 1
    6982     5421     6724 1
    6983     7418     9814 1
    6984     5621     6872 1
    6985     3054     3441 1
    6986    13679    15264 1
    6987     7534     9737 1
    6988    12084    12316 1
    6989     4193     5149 1
    6990    11898    13566 1
    6991     3901     4143 1
    6992     4465     5307 1
    6993      894     1302 1
    6994     5581     6272 1
    6995    16684    16767 1
    6996     7741     9240 1
    6997     3216     3323 1
    6998    14336    15304 1
    6999     8970     8249 1
    7000     6615     7138 1
    7001    10552    11231 1
    7002     7478    10822 1
    7003    13854    14071 1
    7004    14875    15190 1
    7005     4421     4482 1
    7006      840      182 1
    7007     2953     1964 1
    7008     8297     9330 1
    7009      914      220 1
    7010    14212    14775 1
    7011    11185    11368 1
    7012    11908    13101 1
    7013    10673    11463 1
    7014     7995     9183 1
    7015     1026      792 1
    7016     3694     4231 1
    7017    12492    13209 1
    7018     1564      343 1
    7019     1046     1457 1
    7020     7735     9208 1
    7021     7548     8264 1
    7022    14647    15052 1
    7023    13744    14187 1
    7024    13816    14464 1
    7025    16798    16939 1
    7026       95     1170 1
    7027    11894    13175 1
    7028     8438     9107 1
    7029       41     4011 1
    7030     7329     8320 1
    7031     8268     9122 1
    7032     5427     5756 1
    7033     2815     2276 1
    7034      913      851 1
    7035     5573     6235 1
    7036     7197     8726 1
    7037     3412     1838 1
    7038     7619     9568 1
    7039     6114     6657 1
    7040    14333    15175 1
    7041    14771    15089 1
    7042    10262    10439 1
    7043     1615     1350 1
    7044     7599     9701 1
    7045    12009    13452 1
    7046     3111     2471 1
    7047     1163     1347 1
    7048     3822     4768 1
    7049     9154     9412 1
    7050    14431    14783 1
    7051    13700    14566 1
    7052     3208     1925 1
    7053     5377     6123 1
    7054    10283    11174 1
    7055     7647     9484 1
    7056    10065    10507 1
    7057     2461     2494 1
    7058     7573     7961 1
    7059    10858    11608 1
    7060    10061    11702 1
    7061    12085    13220 1
    7062     3015     3099 1
    7063     4798     5347 1
    7064    11970    13593 1
    7065     6363     6775 1
    7066     1275      533 1
    7067    10184    10880 1
    7068    12188    12687 1
    7069     6866     9974 1
    7070     3760     4722 1
    7071    15450    16509 1
    7072    13204    13543 1
    7073    16259    16983 1
    7074     4505     5045 1
    7075     8953     9705 1
    7076     7829     8204 1
    7077     8282     9633 1
    7078    14627    14744 1
    7079    15058    15327 1
    7080    13751    14944 1
    7081     3156     2661 1
    7082    13881    14635 1
    7083     7690     8232 1
    7084    16104    16923 1
    7085     4916     5112 1
    7086    11877    11906 1
    7087      312      396 1
    7088     1606     1377 1
    7089      956      854 1
    7090     2050     2121 1
    7091     8533     9677 1
    7092    12058    12204 1
    7093     8257     8584 1
    7094     3907     4583 1
    7095    15814    15931 1
    7096    10307    11272 1
    7097     4502     5050 1
    7098     3185     2673 1
    7099    12628    13609 1
    7100    15688    16054 1
    7101     2113     2352 1
    7102    12324    13318 1
    7103    10266    11063 1
    7104     5376     6894 1
    7105    10586    11464 1
    7106     7451     8343 1
    7107    10742    11563 1
    7108    14233    15051 1
    7109    13761    14995 1
    7110     3691     4336 1
    7111    10417    11699 1
    7112     8309     9840 1
    7113     3215     3241 1
    7114    14131    14747 1
    7115     6043     6511 1
    7116     2952     2733 1
    7117     3237     2005 1
    7118    10567    10703 1
    7119     1110      518 1
    7120      408     5327 1
    7121    12609    13587 1
    7122     3100     2645 1
    7123    15745    16709 1
    7124     4515     4901 1
    7125    11169    11419 1
    7126    10543    10894 1
    7127    10748    11683 1
    7128    14010    14270 1
    7129    12254    12811 1
    7130    10944    11459 1
    7131    14485    15106 1
    7132     8993     8349 1
    7133    16687    17209 1
    7134       27       21 1
    7135     3606     5254 1
    7136     8907     7969 1
    7137     2004     2693 1
    7138     7761     9531 1
    7139      521      388 1
    7140    12636    13323 1
    7141    13718    13761 1
    7142     5582     6660 1
    7143     6684     7053 1
    7144     9760    10049 1
    7145    12188    13575 1
    7146    15015    15342 1
    7147     7444     9183 1
    7148    12020    12799 1
    7149     6956     7126 1
    7150     1009      109 1
    7151    11158    11660 1
    7152     5674     6094 1
    7153     7642     7978 1
    7154     8901     7546 1
    7155    10635    10702 1
    7156    16160    17068 1
    7157    13894    14012 1
    7158     5919     7107 1
    7159    11008    11129 1
    7160    13984    14262 1
    7161     3842     4188 1
    7162    10221    11393 1
    7163     8336     9622 1
    7164    10992    11408 1
    7165    11929    11972 1
    7166     7553     8287 1
    7167     3450     1990 1
    7168     7264     7829 1
    7169     5620     6142 1
    7170     8922     7198 1
    7171      954     1597 1
    7172     3805     4601 1
    7173    16399    17007 1
    7174    11590    11607 1
    7175    10082    11487 1
    7176     7710     8175 1
    7177    13419    13545 1
    7178    10559    11783 1
    7179    16360    16952 1
    7180    12062    13343 1
    7181    13689    15147 1
    7182     8473     9571 1
    7183    14732    15282 1
    7184    14585    15156 1
    7185    10382    11812 1
    7186    12044    13169 1
    7187     5604     6732 1
    7188     3536     2096 1
    7189    12553    13210 1
    7190     3879     5265 1
    7191     2403     8636 1
    7192     5379     5499 1
    7193    11953    12700 1
    7194    15548    16618 1
    7195    13803    14985 1
    7196     7855     9243 1
    7197     1691    12513 1
    7198    10196    11097 1
    7199     2952     2424 1
    7200    10691    11510 1
    7201    14218    14925 1
    7202    16567    16887 1
    7203    16186    17132 1
    7204    13037    13046 1
    7205    10329    11145 1
    7206    12499    12892 1
    7207    10342    11446 1
    7208     1965     2562 1
    7209    12019    12889 1
    7210     7889     8581 1
    7211     3043     3165 1
    7212     4505     5035 1
    7213    15546    15877 1
    7214      907      787 1
    7215     6183     6886 1
    7216    12291    12481 1
    7217     5748     6846 1
    7218     7364     7812 1
    7219     7415     9674 1
    7220     2242     2302 1
    7221     7991     8679 1
    7222     2164     2331 1
    7223    13935    14127 1
    7224      593      447 1
    7225     8874     9698 1
    7226     3208     4586 1
    7227     5654     6552 1
    7228     3341     2552 1
    7229     5493     6254 1
    7230    13942    14515 1
    7231     5629     6748 1
    7232     3234     2546 1
    7233    10101    11808 1
    7234     6205    11793 1
    7235     7614     9437 1
    7236    14112    15408 1
    7237    16791    17222 1
    7238      502     1783 1
    7239     5853     6394 1
    7240     2575     2679 1
    7241     1262      504 1
    7242    15886    16515 1
    7243    14144    14753 1
    7244     1983     2705 1
    7245     6166     6980 1
    7246     6160     7036 1
    7247     2022    14370 1
    7248     8416     9771 1
    7249     8748     9486 1
    7250    16231    16639 1
    7251     3988     4502 1
    7252      701      894 1
    7253     5691     5961 1
    7254      387     1749 1
    7255     1374      156 1
    7256     7835     9354 1
    7257     7891     9497 1
    7258     3994     4811 1
    7259    16628    17150 1
    7260     4264    15569 1
    7261    12466    12734 1
    7262    10847    11021 1
    7263    12959    12998 1
    7264     5845     5905 1
    7265    10417    10590 1
    7266     2862     2587 1
    7267     8552     9576 1
    7268     4298     4883 1
    7269    15880    16810 1
    7270     3858     5279 1
    7271     1139     1654 1
    7272    13838    15291 1
    7273     8741     9727 1
    7274    13863    15117 1
    7275    12326    13084 1
    7276    15557    15615 1
    7277       32     1684 1
    7278    15478    16769 1
    7279     7336     9717 1
    7280    12100    12173 1
    7281    13857    15072 1
    7282    14227    14363 1
    7283     4775     5074 1
    7284     2786     3151 1
    7285    14720    15279 1
    7286    13902    13913 1
    7287     8262     8473 1
    7288     5510     6857 1
    7289     7176     7645 1
    7290     1113     1367 1
    7291    13013    13226 1
    7292    11349    11788 1
    7293     5686     6661 1
    7294    14067    15174 1
    7295     1420      304 1
    7296     3091     3335 1
    7297    10470    11048 1
    7298    15358    15374 1
    7299      603    11877 1
    7300     4160     4525 1
    7301     3536     2138 1
    7302    15800    16086 1
    7303     2878     3237 1
    7304     7398     8155 1
    7305    12091    12434 1
    7306     4201     4840 1
    7307     8015     9206 1
    7308      955      235 1
    7309     5111     5269 1
    7310    10357    10551 1
    7311     3011     1966 1
    7312      607     1597 1
    7313     3753     4742 1
    7314     1998     2145 1
    7315     8256     8443 1
    7316    14273    15416 1
    7317    10801    11007 1
    7318     1208      494 1
    7319    16145    16248 1
    7320    10970    11148 1
    7321     3278     2611 1
    7322    10671    11391 1
    7323     3662     4669 1
    7324     7841     9790 1
    7325    10453    11066 1
    7326    10451    11657 1
    7327     1197     1533 1
    7328     5863     6080 1
    7329    15729    16527 1
    7330    10130    11778 1
    7331      557     1739 1
    7332      509      366 1
    7333     8802     9470 1
    7334     8933     7447 1
    7335     6760     7048 1
    7336    13362    13622 1
    7337     4207     4253 1
    7338     2909     3547 1
    7339     1970     2417 1
    7340    16168    16545 1
    7341     3592     4444 1
    7342     3521     1838 1
    7343    10668    11612 1
    7344      584      246 1
    7345     8938     8623 1
    7346     3450     2274 1
    7347     7444     8454 1
    7348     3620     5328 1
    7349    14231    14920 1
    7350     7334     8020 1
    7351    13343    13447 1
    7352    14703    15100 1
    7353     7977     8332 1
    7354     3624     4859 1
    7355     8057     8234 1
    7356    10061    10139 1
    7357    16173    16241 1
    7358     1009     1383 1
    7359    14110    15046 1
    7360      574     1685 1
    7361     7734     9325 1
    7362    12307    13244 1
    7363     7918     8274 1
    7364    14122    14395 1
    7365    10470    10535 1
    7366    16078    16851 1
    7367    15637    16103 1
    7368     2573     2610 1
    7369    12310    13561 1
    7370     2050     2351 1
    7371    11291    11509 1
    7372     2366     2503 1
    7373     4914     5353 1
    7374    13927    14882 1
    7375     2896     1913 1
    7376     5433     5774 1
    7377     4753     4825 1
    7378     1339      424 1
    7379    15647    16530 1
    7380     2516     2540 1
    7381    15603    16390 1
    7382     5698     7108 1
    7383     3338     2401 1
    7384     8171     8326 1
    7385    16587    17119 1
    7386     9502     9746 1
    7387     9002     9628 1
    7388    15738    16207 1
    7389     6742     6924 1
    7390     7701     9584 1
    7391     5542     6993 1
    7392     6030     6139 1
    7393     7738     8288 1
    7394    11552    11656 1
    7395    12417    13275 1
    7396    13544    13596 1
    7397    14888    14970 1
    7398     7447     8042 1
    7399    11812    11823 1
    7400     5501     7521 1
    7401     7739     8710 1
    7402     5551     6522 1
    7403    12028    13019 1
    7404     1115     1652 1
    7405     9498     9662 1
    7406    10885    11547 1
    7407    14113    14431 1
    7408     3708     9407 1
    7409    10359    11054 1
    7410     8222     8570 1
    7411     5432     6585 1
    7412     5958     6386 1
    7413    11850    12133 1
    7414     3007     1859 1
    7415     1058     1505 1
    7416     1169     1649 1
    7417     7792     8647 1
    7418    13740    15328 1
    7419    15479    17061 1
    7420    12064    13296 1
    7421    13654    14135 1
    7422     4679     4560 1
    7423    13770    14471 1
    7424    10312    10515 1
    7425    14358    14415 1
    7426     1636     7138 1
    7427    15988    16819 1
    7428     3400     2179 1
    7429     3901     5214 1
    7430     3558     2440 1
    7431     3698     4063 1
    7432    12489    12730 1
    7433     2838     3091 1
    7434     3662     3941 1
    7435     5468     7058 1
    7436       18      662 1
    7437     6505     6783 1
    7438      994      561 1
    7439    15620    17174 1
    7440    11952    12271 1
    7441     7738     9833 1
    7442     3877     4345 1
    7443    15064    15386 1
    7444    11228    11342 1
    7445    12664    13228 1
    7446    12364    13164 1
    7447      657     1770 1
    7448     4449     4498 1
    7449     6066     6924 1
    7450      691    12425 1
    7451    16600    17208 1
    7452    10305    10810 1
    7453     5465     5666 1
    7454     3155     2090 1
    7455     5730     7126 1
    7456    14683    15093 1
    7457     6053     7111 1
    7458     9018     7488 1
    7459    13777    14334 1
    7460     6065     7146 1
    7461    13890    14412 1
    7462     1052     1319 1
    7463     1380     1464 1
    7464     1098      645 1
    7465     2753     3260 1
    7466      822     1388 1
    7467     3513     2251 1
    7468    14366    15157 1
    7469     2798     2655 1
    7470     6261     6332 1
    7471    11107    11340 1
    7472    12253    12844 1
    7473      898      131 1
    7474     6869     6919 1
    7475     4101     4610 1
    7476    13087    13212 1
    7477     6181     7084 1
    7478     1052     1287 1
    7479     3611     3759 1
    7480     4263     4359 1
    7481     1078      473 1
    7482    11532    11584 1
    7483     7714     8006 1
    7484     9355     9732 1
    7485      866      523 1
    7486     6899     7029 1
    7487    14548    14761 1
    7488     7470     7799 1
    7489     6211     7120 1
    7490    13777    15214 1
    7491    11007    11648 1
    7492    14250    15214 1
    7493    16725    16906 1
    7494       82     1263 1
    7495    15675    16088 1
    7496     4624     4894 1
    7497    11974    12032 1
    7498    12175    12271 1
    7499      353     1749 1
    7500    10833    11471 1
    7501     6384     6419 1
    7502     3410     2518 1
    7503     1501      150 1
    7504      852     1470 1
    7505    14832    15351 1
    7506    16577    16855 1
    7507     7733     8091 1
    7508    16286    16307 1
    7509    13144    13219 1
    7510    15716    16973 1
    7511     9677     9943 1
    7512     3406     2346 1
    7513     5404     6347 1
    7514     8215     9969 1
    7515     6462     7062 1
    7516    12148    13567 1
    7517    16288    17019 1
    7518    13117    13268 1
    7519     4127     4985 1
    7520     1684     1488 1
    7521    14777    14785 1
    7522    13091    13173 1
    7523     8998     9840 1
    7524     3908     4009 1
    7525     3141     2097 1
    7526     7688     8010 1
    7527    12013    13020 1
    7528     2977     2522 1
    7529     5833     6650 1
    7530     7564     8450 1
    7531    13720    14734 1
    7532     1326      284 1
    7533     3303     3445 1
    7534    10093    11176 1
    7535    16302    16779 1
    7536    11031    15989 1
    7537     8001     9107 1
    7538     3296     4698 1
    7539      703      469 1
    7540    10085    10218 1
    7541    15813    15838 1
    7542      871     1664 1
    7543     4334     4848 1
    7544     9227     9297 1
    7545     2453     9895 1
    7546     4205    16101 1
    7547    10068    10513 1
    7548    16253    16824 1
    7549      711      869 1
    7550     3263     3316 1
    7551     8250     8505 1
    7552     8702     9552 1
    7553    12600    12761 1
    7554     4718     5005 1
    7555     4040     5078 1
    7556     4140     5305 1
    7557    16082    16720 1
    7558     3314     1804 1
    7559     3040     2399 1
    7560     7881     8619 1
    7561     3884     4614 1
    7562     4374     4515 1
    7563     6108     6557 1
    7564    12400    13102 1
    7565    14269    15375 1
    7566      590     1503 1
    7567    10739    11203 1
    7568    12315    13544 1
    7569     8550     9156 1
    7570      922     1708 1
    7571    10947    11787 1
    7572     6076     6634 1
    7573     7212     9286 1
    7574     4936     5271 1
    7575     7192     7368 1
    7576     8382     8826 1
    7577    14383    14795 1
    7578    12869    13301 1
    7579     6327     6937 1
    7580     1227      367 1
    7581     2849     3375 1
    7582     3637     4241 1
    7583     9490    10004 1
    7584     7251     7938 1
    7585     3480     2714 1
    7586      903      464 1
    7587     3164     2460 1
    7588     3300     3377 1
    7589     6039     6639 1
    7590     3036     9915 1
    7591     6490     6603 1
    7592    12498    12936 1
    7593    13782    14954 1
    7594     5749     6504 1
    7595     5865     7150 1
    7596     5583     6958 1
    7597     2834     1962 1
    7598    10276    11645 1
    7599     1174     1601 1
    7600    10278    10497 1
    7601     2342    14612 1
    7602     1196      300 1
    7603     2008     2135 1
    7604       90      501 1
    7605    12443    13256 1
    7606     3100     1935 1
    7607     1358     1398 1
    7608     5767     6910 1
    7609     1498      448 1
    7610    12878    12926 1
    7611     1831     1856 1
    7612     5796     6991 1
    7613     4013     4035 1
    7614     6229     7030 1
    7615    13835    14090 1
    7616    14660    14695 1
    7617    13712    14330 1
    7618     8569     9650 1
    7619     1966     2620 1
    7620     5407     5827 1
    7621     3726     4608 1
    7622     8178     9905 1
    7623     2312     2514 1
    7624     3943     4221 1
    7625     4497     4972 1
    7626     3480     2135 1
    7627    15723    17139 1
    7628     5798     5984 1
    7629     5423     6213 1
    7630    11553    11741 1
    7631     8322     9562 1
    7632       69      827 1
    7633     1067     1474 1
    7634     7308     8519 1
    7635     5517     6738 1
    7636      611     1361 1
    7637    16631    16957 1
    7638     2999     2619 1
    7639     3840     4207 1
    7640      913     1707 1
    7641    12764    13319 1
    7642     4283     4392 1
    7643     6018     6492 1
    7644    15634    16699 1
    7645    13005    13508 1
    7646     2569     2686 1
    7647     8618     9837 1
    7648     4659     4440 1
    7649     4981     5330 1
    7650     1073      728 1
    7651     3844     4237 1
    7652    15694    16066 1
    7653      499     1529 1
    7654    12762    13115 1
    7655    15918    16493 1
    7656    11951    13043 1
    7657      814      404 1
    7658    12792    13063 1
    7659    13792    14248 1
    7660    12307    13149 1
    7661       49      465 1
    7662     4230     5344 1
    7663    16314    17086 1
    7664     8067     9210 1
    7665     8307     9975 1
    7666     2885     2431 1
    7667    10883    11610 1
    7668     7865     9673 1
    7669    15630    16066 1
    7670     5776     6796 1
    7671    14427    15116 1
    7672     3136     3381 1
    7673    11020    11818 1
    7674     6287     6877 1
    7675     5903     5929 1
    7676    15704    16434 1
    7677     8053     9660 1
    7678    16930    17003 1
    7679    11981    12792 1
    7680    10729    10963 1
    7681    14234    14930 1
    7682    12233    12709 1
    7683    10223    11232 1
    7684    14022    14539 1
    7685      575      116 1
    7686    15463    17098 1
    7687    13750    15067 1
    7688     6033     7076 1
    7689     3629     5295 1
    7690     3635     4911 1
    7691      696      849 1
    7692     2934     3267 1
    7693     7471     9225 1
    7694      932     1546 1
    7695    16738    16813 1
    7696    12338    12552 1
    7697     3788     3905 1
    7698    10662    10802 1
    7699     3257     2715 1
    7700    12997    13518 1
    7701     8458     9184 1
    7702    13873    15006 1
    7703     1184      121 1
    7704     8925     8708 1
    7705     3748     4620 1
    7706     1519     1778 1
    7707    16021    16134 1
    7708     7580     7603 1
    7709    12893    13129 1
    7710    14356    14634 1
    7711     1917     2676 1
    7712       98      415 1
    7713      962     1512 1
    7714      506      160 1
    7715     4328     4716 1
    7716    16954    16986 1
    7717    10352    11766 1
    7718    15500    17122 1
    7719     3923     5264 1
    7720    13724    14912 1
    7721     5730     6163 1
    7722    13694    15235 1
    7723    14172    14199 1
    7724     7217     7946 1
    7725      824     1748 1
    7726     4430     5044 1
    7727     1588     1308 1
    7728      609      227 1
    7729     8621     9178 1
    7730     1149      187 1
    7731     1525     1591 1
    7732     8085     8359 1
    7733    12984    13578 1
    7734    15619    16442 1
    7735     3582     4184 1
    7736     5678     6637 1
    7737      988     1323 1
    7738    13993    14576 1
    7739     8903     7361 1
    7740     2126     2449 1
    7741    16875    17069 1
    7742     8098     9955 1
    7743      735     1623 1
    7744     3243     2575 1
    7745     9336    10029 1
    7746    15771    16997 1
    7747     3764     4187 1
    7748    10895    11244 1
    7749    16349    16603 1
    7750    10248    11504 1
    7751    11921    12351 1
    7752    13658    14807 1
    7753      765     1744 1
    7754     4214     4236 1
    7755    10217    11130 1
    7756    13915    14784 1
    7757     5363     6928 1
    7758    11988    13570 1
    7759    12289    13584 1
    7760     3816     4942 1
    7761     6998     7078 1
    7762     1023     1544 1
    7763     7504     9279 1
    7764     6827     7087 1
    7765     7407     7744 1
    7766     3221     2073 1
    7767     3048     1985 1
    7768     4739     5344 1
    7769    15727    16649 1
    7770    14657    15324 1
    7771      771      810 1
    7772     8651     8763 1
    7773     3865     4763 1
    7774      493     1461 1
    7775     5705     6492 1
    7776     5710     7822 1
    7777    10793    11147 1
    7778    15526    16372 1
    7779    14529    14940 1
    7780    14797    15119 1
    7781     3528      661 1
    7782     7526     9771 1
    7783     4870     5308 1
    7784    15957    16471 1
    7785     7985     9405 1
    7786    11990    12862 1
    7787     4366     4807 1
    7788     1619      421 1
    7789    16301    17100 1
    7790    15995    17169 1
    7791    14040    14615 1
    7792     1361      221 1
    7793    14261    14440 1
    7794     7326     8578 1
    7795    15894    16743 1
    7796    15560    15775 1
    7797    10169    10268 1
    7798     6326     7131 1
    7799     1086     1568 1
    7800    10418    10993 1
    7801     8097     9391 1
    7802    14076    14690 1
    7803     6374     7088 1
    7804    15750    16029 1
    7805    10234    11223 1
    7806     1603     1782 1
    7807     4522     4539 1
    7808    15451    15457 1
    7809     3603     5325 1
    7810     4169     4519 1
    7811      711      677 1
    7812     9531     9533 1
    7813     5765     6255 1
    7814     3104     2086 1
    7815    10445    11302 1
    7816     3420     2672 1
    7817     3403     2636 1
    7818    10111    10981 1
    7819    10629    11041 1
    7820    10355    11250 1
    7821     4063     4604 1
    7822    12017    12529 1
    7823       12     1781 1
    7824    16105    16369 1
    7825    16290    16906 1
    7826      535     1556 1
    7827    13914    13963 1
    7828    14259    14681 1
    7829    14114    14172 1
    7830    16004    17121 1
    7831    14828    14891 1
    7832      320      382 1
    7833     8868     8996 1
    7834    10608    11367 1
    7835    14080    15223 1
    7836     2795     2967 1
    7837    15753    16249 1
    7838     8385     9261 1
    7839    12096    12139 1
    7840    14945    15134 1
    7841     7830     8793 1
    7842     1530      364 1
    7843     1994     2560 1
    7844     6559    13611 1
    7845    10658    11682 1
    7846    11956    12545 1
    7847     1821     2613 1
    7848      979      409 1
    7849     3772     4495 1
    7850     9040     8615 1
    7851     2295     2000 1
    7852     3821     4042 1
    7853     7354     9373 1
    7854     6428     6839 1
    7855     1194      566 1
    7856    12106    13246 1
    7857    15643    16678 1
    7858    13798    14980 1
    7859    12544    13078 1
    7860    11312    11476 1
    7861    10056    11307 1
    7862    14709    15302 1
    7863    12299    12359 1
    7864     7910     9577 1
    7865     2151     2190 1
    7866    15958    16764 1
    7867    14362    14741 1
    7868     3647     4965 1
    7869     2891     2340 1
    7870     5741     7067 1
    7871    12582    12913 1
    7872     4096     4170 1
    7873    14243    14996 1
    7874     9055     7612 1
    7875    14063    14600 1
    7876     8978     7698 1
    7877    16037    17031 1
    7878     1253      479 1
    7879     7729     8014 1
    7880     7661     9990 1
    7881     3611     5106 1
    7882    15015    15242 1
    7883     3720     4981 1
    7884      983     1524 1
    7885     7883     9887 1
    7886     8272     8567 1
    7887     5644     5693 1
    7888     6564     6867 1
    7889     5769    10403 1
    7890     6582     6610 1
    7891     3207     2462 1
    7892     3507     3524 1
    7893    13763    13819 1
    7894     4689    15495 1
    7895     1478      182 1
    7896    12853    13025 1
    7897     1547      180 1
    7898     7433     8558 1
    7899    16053    16280 1
    7900     4784     4976 1
    7901     3962     4034 1
    7902     9663     9906 1
    7903    16983    17160 1
    7904    14135    14557 1
    7905    15532    15733 1
    7906     7782     7919 1
    7907    15611    16611 1
    7908     9649     9844 1
    7909    11910    11954 1
    7910    12157    12474 1
    7911     5445     6595 1
    7912    16110    16858 1
    7913     8691     9624 1
    7914     4849     4999 1
    7915     7409     8183 1
    7916     3143     2396 1
    7917     1241     1787 1
    7918      605      239 1
    7919    13047    13617 1
    7920     7215     7527 1
    7921    12214    12497 1
    7922     5930     6470 1
    7923    16629    16638 1
    7924      946     1766 1
    7925    14917    14937 1
    7926     7273     7636 1
    7927     3028     2079 1
    7928     5924     6619 1
    7929     3397     2149 1
    7930     3836     5257 1
    7931       64     1122 1
    7932     7553     7630 1
    7933     6462     8077 1
    7934      978     1770 1
    7935      851     1397 1
    7936     3965      494 1
    7937     9373     9936 1
    7938     6722     6762 1
    7939    14327    15160 1
    7940    14553    14730 1
    7941    13641    14007 1
    7942    10904    11449 1
    7943     7404     9615 1
    7944     7171     9966 1
    7945     4939     5202 1
    7946     5683     5958 1
    7947     3750     4349 1
    7948     1716      113 1
    7949    12645    12785 1
    7950     3017     2507 1
    7951    15900    16722 1
    7952     7640     8346 1
    7953    13731    14819 1
    7954     3829     4032 1
    7955    16054    16256 1
    7956     2629     2703 1
    7957    14061    14915 1
    7958    15640    16408 1
    7959     6092     6489 1
    7960      925     1476 1
    7961     2793     3200 1
    7962    13018    13555 1
    7963     2979     2033 1
    7964     5004     5110 1
    7965     7984     8633 1
    7966    12203    13090 1
    7967    13851    15158 1
    7968     2186     1984 1
    7969     3697     5331 1
    7970      987      574 1
    7971     2241     2746 1
    7972     6093     6886 1
    7973    12799    12964 1
    7974     3169     3491 1
    7975     3456     2481 1
    7976     5795     5958 1
    7977    13016    13017 1
    7978     7484     9410 1
    7979    14373    14443 1
    7980     1092      485 1
    7981    12288    12894 1
    7982     2989     2155 1
    7983    10414    10583 1
    7984    15203    15424 1
    7985     2520     7527 1
    7986     3795     5163 1
    7987     6833     7037 1
    7988     7921     9238 1
    7989     5002     5274 1
    7990     2923     2931 1
    7991     8160     8800 1
    7992     5603     7026 1
    7993    13766    14418 1
    7994     3960     4541 1
    7995    10073    10211 1
    7996    15627    16763 1
    7997     6806     6878 1
    7998    15924    16707 1
    7999     4019     4241 1
    8000    15871    16590 1
    8001    13150    13429 1
    8002    10827    11822 1
    8003    11866    12918 1
    8004    15897    16940 1
    8005     7896     8218 1
    8006     5484     5843 1
    8007     2856     2511 1
    8008    10577    10601 1
    8009    10242    11376 1
    8010    15635    17091 1
    8011     2318     2331 1
    8012    15781    17186 1
    8013    10215    10577 1
    8014     8498     8781 1
    8015     5456     6518 1
    8016     2347     2436 1
    8017    14910    15278 1
    8018     7774     9990 1
    8019     5772     5846 1
    8020    10375    11495 1
    8021    10843    11124 1
    8022    15885    16620 1
    8023    13656    14588 1
    8024    12398    12949 1
    8025    11036    11576 1
    8026     5610     6992 1
    8027    16029    16406 1
    8028     7256     7792 1
    8029    10138    10967 1
    8030     5609     5953 1
    8031     9016     9314 1
    8032     2794     2039 1
    8033     7984     9667 1
    8034     3124     3568 1
    8035     6380     7099 1
    8036    15492    16694 1
    8037    16334    16900 1
    8038    10907    11009 1
    8039     6281     6636 1
    8040     3681     4774 1
    8041    14657    15218 1
    8042    14458    15354 1
    8043     8115     9672 1
    8044    11406    11693 1
    8045     1773      186 1
    8046     8508     9125 1
    8047    13757    14121 1
    8048     2943     3267 1
    8049     3340     2319 1
    8050     4550     5080 1
    8051     8142     8320 1
    8052     7825     8000 1
    8053     5783     6778 1
    8054     8673     8823 1
    8055    16484    16722 1
    8056    15277    15364 1
    8057    13732    14775 1
    8058    13661    15035 1
    8059     4385    15719 1
    8060     8411     8624 1
    8061    12901    13128 1
    8062     5488     7033 1
    8063    12190    12946 1
    8064    10494    10680 1
    8065     1188      110 1
    8066     9003     9203 1
    8067    10956    11052 1
    8068    16929    16930 1
    8069      319      378 1
    8070     6271     6588 1
    8071     6460     6703 1
    8072     2246     2455 1
    8073     2905     3051 1
    8074    10680    11818 1
    8075     4189     4914 1
    8076    12416    12579 1
    8077      379     1760 1
    8078     4029     4655 1
    8079    10341    11184 1
    8080     2281     2438 1
    8081     2246     1988 1
    8082     2830     2071 1
    8083    12767    13241 1
    8084     7361     7524 1
    8085     5815     5983 1
    8086      867     1435 1
    8087    14039    14845 1
    8088     8141     8184 1
    8089     5867     6625 1
    8090      530      446 1
    8091     5568     6627 1
    8092     3414     3480 1
    8093     3764     4314 1
    8094    14395    15094 1
    8095     7769     8104 1
    8096    14691    14888 1
    8097     5900     6149 1
    8098    16124    16843 1
    8099     4131     4680 1
    8100     3306     2605 1
    8101    15757    16605 1
    8102     3014     2726 1
    8103     8895     9670 1
    8104     5950     6189 1
    8105     8246     9418 1
    8106     7174     8303 1
    8107       64      472 1
    8108     9815     9914 1
    8109    16468    16811 1
    8110     1194     1714 1
    8111     9251     9730 1
    8112    13819    14420 1
    8113     8345     9887 1
    8114    16071    17115 1
    8115     1619     1334 1
    8116     5067     5140 1
    8117     6014     7082 1
    8118     9241     9424 1
    8119     1426     1760 1
    8120    12650    12873 1
    8121     4463     4973 1
    8122    10618    11309 1
    8123     6082     6626 1
    8124     8523     9877 1
    8125    12094    12840 1
    8126     3632     5083 1
    8127     2162     1797 1
    8128     7655     8019 1
    8129    14034    14534 1
    8130    10508    11352 1
    8131      709     1368 1
    8132     3751     4623 1
    8133     5450     6740 1
    8134    16657    17037 1
    8135     8176     8178 1
    8136      556      111 1
    8137     1118      229 1
    8138    15925    17090 1
    8139    15377    16277 1
    8140     5782     6436 1
    8141     5558     6712 1
    8142     2857     2735 1
    8143      806      630 1
    8144    15237    16802 1
    8145      614     1698 1
    8146    14584    14608 1
    8147       19      232 1
    8148     6468     6815 1
    8149    12484    12506 1
    8150    12664    12773 1
    8151     7421     8202 1
    8152    14095    14170 1
    8153    10365    11097 1
    8154     9070     9396 1
    8155     9210     9338 1
    8156     7780     8319 1
    8157    12970    13082 1
    8158     7439     9343 1
    8159     8386     9315 1
    8160     7451     8248 1
    8161     2852     2548 1
    8162     3029     2625 1
    8163     2071     8174 1
    8164     4016     4962 1
    8165     1001     1637 1
    8166    15937    16546 1
    8167     7422     9883 1
    8168    13778    14658 1
    8169    10577    10919 1
    8170     2873     4281 1
    8171    11898    12125 1
    8172     3220     2647 1
    8173     4133    15912 1
    8174    10286    11109 1
    8175    12185    12358 1
    8176     6382     6754 1
    8177     4246     5281 1
    8178    15468    15906 1
    8179     1004      410 1
    8180    13752    14085 1
    8181    14312    14720 1
    8182     8340     8590 1
    8183     4424     5103 1
    8184     7927     8057 1
    8185    10571    11247 1
    8186     3984     5096 1
    8187    16235    17165 1
    8188     7627     9724 1
    8189    15710    16317 1
    8190     1246      482 1
    8191     5759     5776 1
    8192    14280    14949 1
    8193    13018    13426 1
    8194    11029    15989 1
    8195    14100    15043 1
    8196      804      222 1
    8197     6316     6658 1
    8198    14069    14920 1
    8199     3847     4662 1
    8200     3705     4468 1
    8201     2822     2587 1
    8202    11687    11755 1
    8203    15807    17197 1
    8204     4264    15985 1
    8205     8883     9309 1
    8206    12671    13337 1
    8207    16388    16546 1
    8208    12963    13108 1
    8209     1344      345 1
    8210     5482     6546 1
    8211    10946    11355 1
    8212    10191    11005 1
    8213     6104     6313 1
    8214     3963     4473 1
    8215    10869    11161 1
    8216    12482    12540 1
    8217      963     1212 1
    8218    14632    15245 1
    8219    10128    11276 1
    8220    13021    13524 1
    8221     7656     8387 1
    8222     9771     9834 1
    8223     1532     1479 1
    8224    16916    17103 1
    8225     3038     2265 1
    8226     1347      178 1
    8227     8277     9924 1
    8228    12619    13261 1
    8229     3094     3373 1
    8230    13272    13300 1
    8231    13778    14729 1
    8232     2965     1884 1
    8233     5161     5332 1
    8234    10851    11286 1
    8235     5939     6663 1
    8236    12839    13409 1
    8237     3980     2134 1
    8238     9003     9219 1
    8239    12018    12866 1
    8240     1982     2371 1
    8241    10826    11338 1
    8242    10261    11145 1
    8243     7453     8246 1
    8244     4465     4548 1
    8245    10354    11268 1
    8246    14456    14469 1
    8247     6851     6913 1
    8248     4864     4981 1
    8249     6571    11317 1
    8250     2945     3496 1
    8251     3820     5257 1
    8252    11937    13343 1
    8253     7690    10048 1
    8254     4234     1741 1
    8255    11613    11722 1
    8256     6056     6150 1
    8257     9573     9859 1
    8258    10103    10106 1
    8259     5505     6353 1
    8260     1397      217 1
    8261     7497     8739 1
    8262     3546     2112 1
    8263     7372    11020 1
    8264     3628     4533 1
    8265    14782    15123 1
    8266     4334     4542 1
    8267    10059    10642 1
    8268     8137     9258 1
    8269    14894    16508 1
    8270    12662    16176 1
    8271      862     1161 1
    8272    10118    11412 1
    8273    12076    13324 1
    8274     6072     7011 1
    8275     4399     5059 1
    8276    15973    16931 1
    8277     5382     5388 1
    8278     1022     1094 1
    8279    14594    14969 1
    8280     2897     3139 1
    8281    12449    13574 1
    8282     5477     6563 1
    8283     4650     5300 1
    8284     5548     6511 1
    8285    14280    14739 1
    8286    10374    11436 1
    8287    12811    13481 1
    8288    11115    11339 1
    8289     7706     9659 1
    8290    11942    12781 1
    8291     5682     6404 1
    8292     3220     2011 1
    8293     9339     9716 1
    8294    12890    13156 1
    8295     3814     4045 1
    8296     3362     3488 1
    8297    13909    14663 1
    8298     5962     6996 1
    8299    13317    13378 1
    8300    13746    15393 1
    8301    14238    14884 1
    8302     1080     1755 1
    8303    12198    12473 1
    8304     8642     9801 1
    8305    16234    16990 1
    8306     2018     2609 1
    8307     2772     3438 1
    8308    10419    11193 1
    8309    12191    12814 1
    8310    12113    12945 1
    8311     2963     2362 1
    8312     4122     4230 1
    8313     7820     9477 1
    8314    16288    16925 1
    8315    11101    11510 1
    8316     1840     2743 1
    8317    13746    14668 1
    8318    15999    16011 1
    8319    14980    15176 1
    8320    15812    16993 1
    8321    13799    13910 1
    8322     8127     9757 1
    8323    14632    14653 1
    8324    12014    12399 1
    8325    16048    16441 1
    8326       27     1434 1
    8327    16482    17146 1
    8328     4202     4378 1
    8329     1287      471 1
    8330     6199     6850 1
    8331    11130    11641 1
    8332     7789     9941 1
    8333     7595     8265 1
    8334     1423      140 1
    8335       60     1312 1
    8336     2375     2557 1
    8337    11448    11733 1
    8338     4541     5208 1
    8339     7539     9144 1
    8340    12560    12744 1
    8341    10116    10149 1
    8342     3487     2598 1
    8343     3920     4085 1
    8344      759     1755 1
    8345    16347    16443 1
    8346     7236     8501 1
    8347    15641    16773 1
    8348    15626    16356 1
    8349     3291     2428 1
    8350    12797    13137 1
    8351    10297    11550 1
    8352     9039     7494 1
    8353     2991     2194 1
    8354     1635     1703 1
    8355     5600     5964 1
    8356     5288     5338 1
    8357     5714     7117 1
    8358    16645    16951 1
    8359    15608    15973 1
    8360    11996    12415 1
    8361    12035    12585 1
    8362      349     2194 1
    8363    12123    12215 1
    8364    12714    12856 1
    8365     6079     6702 1
    8366      647      464 1
    8367    11225    11436 1
    8368    16308    16930 1
    8369     7792     9123 1
    8370     6152     6387 1
    8371     8574     9583 1
    8372     8177     9694 1
    8373    14229    15054 1
    8374     3349     2032 1
    8375    15881    16964 1
    8376    10248    10477 1
    8377      774      526 1
    8378     8571     8604 1
    8379     4330     5237 1
    8380     5706     6708 1
    8381    13779    14136 1
    8382    12224    13336 1
    8383     3871     4788 1
    8384    13878    14224 1
    8385     8438     8537 1
    8386     6205     6921 1
    8387    15899    16757 1
    8388    15721    16624 1
    8389     3644     4500 1
    8390     1053      762 1
    8391    15945    16554 1
    8392     1190      293 1
    8393    12444    13133 1
    8394     4805     5174 1
    8395    12763    13391 1
    8396     3952     4147 1
    8397     1938     2700 1
    8398     7530     8731 1
    8399     3845     4691 1
    8400     5419     5454 1
    8401     2176     2247 1
    8402     8453     9127 1
    8403     1104      270 1
    8404     2882     3124 1
    8405    14848    15340 1
    8406     8967     7957 1
    8407    12136    13552 1
    8408    10338    10940 1
    8409    10166    11259 1
    8410     3849     5241 1
    8411    14856    15084 1
    8412    11856    13562 1
    8413     4701     4872 1
    8414    14230    14662 1
    8415    14516    14786 1
    8416    15518    17157 1
    8417     1694      350 1
    8418     7581     8544 1
    8419    13754    14339 1
    8420    14037    15182 1
    8421    10247    11095 1
    8422    15553    17187 1
    8423     7573     7694 1
    8424    12355    12957 1
    8425     3952     5324 1
    8426      796      527 1
    8427     4315     5325 1
    8428    11960    13043 1
    8429    13946    14646 1
    8430    15438    16680 1
    8431     6695     6717 1
    8432    12968    13339 1
    8433     8228     9554 1
    8434     6502     6567 1
    8435     1264      374 1
    8436    11934    12208 1
    8437    10478    11290 1
    8438      628     1382 1
    8439     6025     7040 1
    8440     6761     6868 1
    8441     4702     4814 1
    8442    12250    13345 1
    8443    10612    11462 1
    8444     3367     1829 1
    8445     3831     4032 1
    8446     7182     8368 1
    8447    11213    11536 1
    8448    15657    16442 1
    8449      381     1751 1
    8450    10423    11763 1
    8451    10820    11763 1
    8452    12975    13295 1
    8453    11176    11310 1
    8454    13719    15249 1
    8455    12934    17135 1
    8456    12879    13184 1
    8457     7742     8004 1
    8458        2      704 1
    8459    11921    13604 1
    8460     1254      519 1
    8461     5484     6426 1
    8462     6504     7103 1
    8463    12049    14398 1
    8464    12417    12428 1
    8465     4464     4876 1
    8466     9043     9574 1
    8467     4447     4920 1
    8468     5589     5909 1
    8469    10874    10920 1
    8470     5436     6236 1
    8471     3224     3420 1
    8472    10549    10917 1
    8473    14877    15092 1
    8474    15689    16028 1
    8475    12176    12304 1
    8476     8912     8681 1
    8477     3452     1903 1
    8478     3439     2540 1
    8479    14357    14470 1
    8480      101     1502 1
    8481     1107      351 1
    8482     1254      129 1
    8483    12369    12639 1
    8484    16404    16910 1
    8485    10109    11016 1
    8486     4686     4928 1
    8487     3431     2430 1
    8488      858     4759 1
    8489     9899     9975 1
    8490    14473    14542 1
    8491    10174    10511 1
    8492     8894     9295 1
    8493    10431    11477 1
    8494     3706     4466 1
    8495    16331    16583 1
    8496    16869    17142 1
    8497     4568     4618 1
    8498     5202     5283 1
    8499     3984     4417 1
    8500     3720     4078 1
    8501     7735     8358 1
    8502    12487    13000 1
    8503     4343     4382 1
    8504     1015     1721 1
    8505    11103    11365 1
    8506     3173     2229 1
    8507    14255    14530 1
    8508     9908    11148 1
    8509     7442     9092 1
    8510     8881     7610 1
    8511    15809    16881 1
    8512    16102    16621 1
    8513    15543    17105 1
    8514     8956     7496 1
    8515      761     1274 1
    8516     3704     3761 1
    8517    10428    10760 1
    8518     3793     4670 1
    8519     2803     2877 1
    8520     8389     9132 1
    8521     4278     1017 1
    8522     3741     4818 1
    8523    16804    16812 1
    8524    12658    13539 1
    8525    15885    16397 1
    8526     7785     8759 1
    8527     3165     1790 1
    8528     1168      229 1
    8529    12131    13413 1
    8530     3242     2544 1
    8531     5844     7137 1
    8532    10443    11196 1
    8533     7220     9721 1
    8534     3787     4912 1
    8535    13750    15213 1
    8536     3466     1891 1
    8537      797      482 1
    8538    10383    11696 1
    8539     7790     8842 1
    8540     4315     5111 1
    8541    13841    13887 1
    8542     7164     8695 1
    8543    11017    11338 1
    8544      945      802 1
    8545     3048     1867 1
    8546     8756     9712 1
    8547    12131    13404 1
    8548     7637     8464 1
    8549     7280     7516 1
    8550    15500    16657 1
    8551     3849     4372 1
    8552     8859     7632 1
    8553    15436    16800 1
    8554     9003     8220 1
    8555     6735     6738 1
    8556     2989     1897 1
    8557    16029    16457 1
    8558    15556    16689 1
    8559     5473     6062 1
    8560     2862     2149 1
    8561    12592    13037 1
    8562     4103     4998 1
    8563     3964     4251 1
    8564     8435     9427 1
    8565      786      188 1
    8566    12153    12708 1
    8567    13858    14759 1
    8568     6475     6731 1
    8569    15824    16330 1
    8570     2212     2220 1
    8571    14225    14421 1
    8572     8985     8086 1
    8573    15446    16196 1
    8574     2988     2084 1
    8575    14381    14911 1
    8576     7640     9547 1
    8577    11860    12999 1
    8578     5398     6001 1
    8579    10262    10960 1
    8580    12119    13513 1
    8581     3875     4201 1
    8582    14197    15101 1
    8583    14754    15155 1
    8584     2904     3031 1
    8585     1586      126 1
    8586     6411     7076 1
    8587    14137    14751 1
    8588     6555     6667 1
    8589     1414      385 1
    8590    13634    15018 1
    8591      899      403 1
    8592    12070    12367 1
    8593    11180    11408 1
    8594    14371    15294 1
    8595    12643    13186 1
    8596    10813    10905 1
    8597      771     1560 1
    8598     5659     6126 1
    8599     2789     2710 1
    8600    12303    12515 1
    8601    12205    13125 1
    8602     6453     6988 1
    8603    10310    10515 1
    8604     7684    10002 1
    8605    11460    11810 1
    8606     3167     2354 1
    8607      770     1557 1
    8608    14659    15265 1
    8609     2253     1889 1
    8610    15526    16615 1
    8611     1805     2546 1
    8612     6117     7019 1
    8613    12755    13107 1
    8614     4593     5115 1
    8615     5815     5864 1
    8616     3085     2362 1
    8617     7228     7757 1
    8618     5948     6224 1
    8619     9028     9139 1
    8620    12358    13195 1
    8621    15818    16300 1
    8622    11943    12148 1
    8623    15494    17036 1
    8624     4539     5204 1
    8625    16778    17003 1
    8626     6514     6782 1
    8627      993      618 1
    8628    14749    15169 1
    8629     5902     6604 1
    8630    16731    17172 1
    8631     5555     5781 1
    8632     3990     4675 1
    8633    14382    15037 1
    8634    12257    12323 1
    8635     5907     6245 1
    8636     8852     9244 1
    8637    12964    13371 1
    8638    14472    15318 1
    8639     5503    12534 1
    8640    14370    14926 1
    8641     3315     2688 1
    8642    15440    16034 1
    8643     2150     2648 1
    8644     7507     8137 1
    8645     3182     2631 1
    8646     3466     2442 1
    8647    11026    11529 1
    8648     7301     9615 1
    8649    10699    11628 1
    8650    12593    13241 1
    8651     2826     2618 1
    8652     9297     9598 1
    8653     3898     4390 1
    8654     5060     5157 1
    8655     5938     6594 1
    8656    10078    11132 1
    8657     3324     2074 1
    8658    13602    13613 1
    8659    10748    11459 1
    8660    15437    15901 1
    8661     3218     3491 1
    8662    16183    16633 1
    8663     8956     9360 1
    8664     4246     4508 1
    8665    14103    14818 1
    8666    10181    11803 1
    8667     5786     5794 1
    8668    10083    10359 1
    8669     7656     8590 1
    8670    12899    13316 1
    8671     9594     9795 1
    8672    14020    14888 1
    8673     9147     9914 1
    8674     3133     2689 1
    8675    13050    16699 1
    8676     8247     9782 1
    8677     7638     8052 1
    8678    14269    15105 1
    8679    12200    12469 1
    8680     9433     9997 1
    8681    12460    13406 1
    8682    16744    17022 1
    8683     7681     9099 1
    8684     8881     9636 1
    8685     3419     2510 1
    8686    11226    11628 1
    8687     7388     9104 1
    8688    12204    13509 1
    8689       30      164 1
    8690    12720    13213 1
    8691     1694     1451 1
    8692     5812     6738 1
    8693     3843     4655 1
    8694      646     1456 1
    8695    14167    15268 1
    8696     3957     4575 1
    8697     5741     5998 1
    8698    13659    13703 1
    8699     6904     7065 1
    8700     4657     4609 1
    8701     4521     4936 1
    8702     5744     6576 1
    8703     3583     4022 1
    8704     3384     2317 1
    8705     1247     1662 1
    8706    11185    11809 1
    8707     2160     2259 1
    8708    10236    10952 1
    8709     4133    16409 1
    8710     5608     6841 1
    8711     3955     5130 1
    8712     7749     8486 1
    8713     3082     2005 1
    8714     1620     1358 1
    8715     3652     4071 1
    8716    12067    12284 1
    8717    12209    13069 1
    8718    17023    17086 1
    8719    10203    11782 1
    8720    13817    15412 1
    8721      758     1689 1
    8722      913     1225 1
    8723     6036     6743 1
    8724     3551     2518 1
    8725     8017     8743 1
    8726     9032     8357 1
    8727     5440     6057 1
    8728     7180     8466 1
    8729     8084     8674 1
    8730     1576      301 1
    8731     7605     8622 1
    8732    16110    16867 1
    8733    13739    14961 1
    8734     3951     4211 1
    8735     5092     5123 1
    8736     2558     2717 1
    8737     3171     2604 1
    8738     7926     9554 1
    8739    16237    16472 1
    8740     6447     7026 1
    8741    13706    15363 1
    8742     4209     4519 1
    8743    13677    13764 1
    8744     4028     4536 1
    8745     1647      363 1
    8746    16160    16911 1
    8747    12255    13368 1
    8748     6096     6679 1
    8749     7205     8341 1
    8750     5901     6412 1
    8751     8140     9606 1
    8752      782      259 1
    8753      803      370 1
    8754    10781    10889 1
    8755     6237     6878 1
    8756     5371     5963 1
    8757     5572     6418 1
    8758     7787     8282 1
    8759     7159     8506 1
    8760    12752    13550 1
    8761     4234     5055 1
    8762     1224     1321 1
    8763     8328     9694 1
    8764    16230    16438 1
    8765    17157    17174 1
    8766     1550     1724 1
    8767     4199     4977 1
    8768    12065    13435 1
    8769    12053    13386 1
    8770      732      877 1
    8771     8154     8452 1
    8772    16076    16940 1
    8773    12278    12440 1
    8774     3628     4994 1
    8775     3774     4837 1
    8776     8446     8808 1
    8777    14246    14978 1
    8778     8151     9476 1
    8779     3120     2122 1
    8780    12663    13560 1
    8781     1637      199 1
    8782     8864     9659 1
    8783     3506     2225 1
    8784     5412     6322 1
    8785      238    12581 1
    8786     5627     5847 1
    8787     2886     2404 1
    8788    16350    17069 1
    8789     2028     2599 1
    8790    13986    14258 1
    8791     4191     4562 1
    8792    16124    17067 1
    8793       22      503 1
    8794     3893     4223 1
    8795    16645    16839 1
    8796    10253    11689 1
    8797    14475    15062 1
    8798    15580    16351 1
    8799      876      273 1
    8800     1004     1439 1
    8801      917      224 1
    8802     7596     9499 1
    8803    14604    15145 1
    8804      748     1195 1
    8805    14743    15280 1
    8806    16711    16975 1
    8807    16558    16792 1
    8808    13639    13922 1
    8809    10285    11772 1
    8810     2008     2696 1
    8811    12252    13069 1
    8812     6010     6648 1
    8813     9008     7609 1
    8814    15471    16955 1
    8815    16180    16869 1
    8816    13674    14444 1
    8817     1676      429 1
    8818     2950     3558 1
    8819     6030    12099 1
    8820     5811     6952 1
    8821     6249     6760 1
    8822    12866    13342 1
    8823    10771    11160 1
    8824    12451    13388 1
    8825    12336    13114 1
    8826    12361    12816 1
    8827    12460    12536 1
    8828     8185     9698 1
    8829    15570    15925 1
    8830      983     1187 1
    8831     4948     5026 1
    8832    12399    13252 1
    8833    10340    11760 1
    8834     1156      441 1
    8835     7257     9292 1
    8836     1250      292 1
    8837     8032     8439 1
    8838    10786    11159 1
    8839     7229     9585 1
    8840    14514    15149 1
    8841     4215     4227 1
    8842    14002    14280 1
    8843     5987     6405 1
    8844      686      173 1
    8845     3678     4432 1
    8846    15947    16789 1
    8847    11904    11937 1
    8848     7178     9326 1
    8849     1217     1447 1
    8850     6020     6905 1
    8851     2923     3440 1
    8852    10186    11472 1
    8853    10550    11815 1
    8854        5      437 1
    8855     3334     2608 1
    8856    10775    11390 1
    8857      603     1630 1
    8858      834      388 1
    8859     3934     4255 1
    8860     7457     9733 1
    8861    10555    11165 1
    8862     8100     9555 1
    8863    13705    14148 1
    8864    13671    14234 1
    8865     5704     6927 1
    8866      557      170 1
    8867     2105     2433 1
    8868     4139     4942 1
    8869     8168     8444 1
    8870     7522     9883 1
    8871        9      931 1
    8872     7459     9982 1
    8873     3826     3867 1
    8874    16411    16435 1
    8875    16866    16891 1
    8876     9015     7611 1
    8877     8195     8659 1
    8878     8435     9194 1
    8879     3639     4833 1
    8880    16719    17080 1
    8881    13972    14224 1
    8882     2869     2024 1
    8883    16737    17225 1
    8884      682      363 1
    8885     8342     9376 1
    8886     5286     5347 1
    8887    11414    11752 1
    8888    11010    11348 1
    8889    14805    14865 1
    8890     8546     9879 1
    8891     5752     5824 1
    8892    14914    15198 1
    8893      814      264 1
    8894    14095    15423 1
    8895     9395     9401 1
    8896     9126     9589 1
    8897      826     1381 1
    8898     9649    10045 1
    8899    10447    11167 1
    8900     5369     7148 1
    8901    12685    13305 1
    8902     3866     5153 1
    8903     7267     9270 1
    8904    12585    12937 1
    8905    11991    13250 1
    8906     2807     2382 1
    8907     7191     8687 1
    8908     3787     5243 1
    8909    16346    16616 1
    8910     6274     7106 1
    8911     3793     4104 1
    8912    15909    16688 1
    8913     7635     8427 1
    8914    15590    16507 1
    8915     7759     9574 1
    8916    10776    11167 1
    8917      510      364 1
    8918     5788     6204 1
    8919     1576     1318 1
    8920    16286    17052 1
    8921     9338     9368 1
    8922     3285     3476 1
    8923     9565     9653 1
    8924    11230    11764 1
    8925    13803    13843 1
    8926       14      604 1
    8927    14170    14688 1
    8928     4377     4611 1
    8929     5408     6832 1
    8930    14105    15409 1
    8931    12707    13386 1
    8932    15704    15824 1
    8933    15647    15960 1
    8934     8534     9691 1
    8935     3016     3505 1
    8936    12520    14845 1
    8937     5924     6013 1
    8938    10587    11040 1
    8939     4626     4823 1
    8940     3029     1952 1
    8941     6591     6864 1
    8942     7482     9843 1
    8943      913     1123 1
    8944     2277     2544 1
    8945    13995    14141 1
    8946    16206    16430 1
    8947     1021     1583 1
    8948     1003      779 1
    8949     5751     6612 1
    8950    11862    12608 1
    8951     1445      381 1
    8952    10122    10165 1
    8953    12605    13307 1
    8954     3596     4564 1
    8955     8130     8474 1
    8956     5876     7003 1
    8957    10845    11264 1
    8958     6847     7033 1
    8959     8945     9827 1
    8960    12518    13140 1
    8961    12378    13475 1
    8962       52     1734 1
    8963    13941    15406 1
    8964    16312    17064 1
    8965     2222     1921 1
    8966     3709     4008 1
    8967      356      480 1
    8968     1038     1085 1
    8969    15798    16680 1
    8970     4361     4809 1
    8971      528      360 1
    8972      947     1048 1
    8973    12158    12851 1
    8974    14636    15273 1
    8975    10342    11489 1
    8976     5826     6261 1
    8977    13839    15178 1
    8978    12156    13198 1
    8979       89      782 1
    8980     2300     2647 1
    8981       22      819 1
    8982     7698     9828 1
    8983     2178     2245 1
    8984     5399    11019 1
    8985    10286    11085 1
    8986    15446    15659 1
    8987     3493     2071 1
    8988    14276    14735 1
    8989     3664     3696 1
    8990    11533    11715 1
    8991     7867     8350 1
    8992    14388    14781 1
    8993    11861    12001 1
    8994     3972     4583 1
    8995     5559     5948 1
    8996     2199     1860 1
    8997    15543    16005 1
    8998     8531     9413 1
    8999     7399     7884 1
    9000     3485     2503 1
    9001    14402    14416 1
    9002    16072    16602 1
    9003     7565     8445 1
    9004     3783     5242 1
    9005     2869     3352 1
    9006    10833    10990 1
    9007     8073    10037 1
    9008     4765     5265 1
    9009      957     1113 1
    9010     1036     1375 1
    9011    12296    12344 1
    9012    11907    13018 1
    9013     7291     7344 1
    9014    12009    13138 1
    9015     6885     6916 1
    9016    16432    17073 1
    9017     9510     9601 1
    9018    12420    16276 1
    9019     8065     8105 1
    9020    13871    13918 1
    9021    16359    16946 1
    9022     5950     6867 1
    9023     7330     7817 1
    9024     6840     7118 1
    9025    15056    15074 1
    9026     3915     5165 1
    9027    14604    15209 1
    9028    10296    11430 1
    9029     8021     8721 1
    9030    12550    13208 1
    9031     5723     7013 1
    9032     9020     7482 1
    9033     8569     8734 1
    9034    13925    15346 1
    9035    13404    13513 1
    9036    11915    12979 1
    9037    15971    16676 1
    9038    10320    10574 1
    9039     5432     6512 1
    9040    15756    17080 1
    9041    16200    17224 1
    9042     3897     4847 1
    9043    15508    16698 1
    9044    16269    16337 1
    9045     2903     3300 1
    9046    10795    11709 1
    9047    15470    17016 1
    9048    10178    10536 1
    9049     7351     7374 1
    9050     9033     9409 1
    9051    10022    10189 1
    9052    12334    12606 1
    9053     3141     2719 1
    9054     3017     1963 1
    9055     3967     4771 1
    9056     2934     1859 1
    9057       17      791 1
    9058     4249     4953 1
    9059      432      254 1
    9060    10082    10127 1
    9061    16579    17111 1
    9062     8243     9801 1
    9063    14119    14476 1
    9064    12103    12179 1
    9065     3796     4380 1
    9066     5617     5822 1
    9067     7356     7394 1
    9068     7434     9672 1
    9069    10102    11680 1
    9070     3979     4406 1
    9071     2936     1924 1
    9072     9188     9977 1
    9073     8820     9902 1
    9074    12809    13477 1
    9075     3352     3571 1
    9076     8868     8949 1
    9077     8742     9837 1
    9078    13036    13557 1
    9079    14723    15296 1
    9080     4224    16235 1
    9081    13876    14569 1
    9082    16076    16178 1
    9083    11267    11432 1
    9084    11447    11689 1
    9085    10290    10344 1
    9086    11950    13164 1
    9087    12102    12625 1
    9088     3332     2220 1
    9089     1047     1522 1
    9090      706     1366 1
    9091     6755     7133 1
    9092    12962    13099 1
    9093     8159    10012 1
    9094     3673     4475 1
    9095    12166    12440 1
    9096    13083    16918 1
    9097    14334    14529 1
    9098    14211    14278 1
    9099     7660     8625 1
    9100     3162     3393 1
    9101     6038     6786 1
    9102     7600     9782 1
    9103    11888    11975 1
    9104      602      330 1
    9105     5600     7114 1
    9106    10514    10940 1
    9107     9178     9937 1
    9108     5533     6528 1
    9109     9035     9500 1
    9110    11436    11758 1
    9111     4384     5001 1
    9112    15890    16528 1
    9113     4105     4510 1
    9114     9705    10053 1
    9115     6419     6869 1
    9116    11951    13534 1
    9117    15565    15764 1
    9118    16049    16997 1
    9119     3039     1914 1
    9120       76      878 1
    9121    16421    17178 1
    9122     5695     6373 1
    9123    11911    12290 1
    9124     5419     6700 1
    9125    14500    14954 1
    9126    12037    13580 1
    9127     3921     5087 1
    9128    12668    13392 1
    9129    10913    11525 1
    9130    10240    10689 1
    9131    13960    14809 1
    9132    14308    16641 1
    9133     7600     7636 1
    9134    10158    11773 1
    9135    14163    14622 1
    9136     8772     9244 1
    9137     8311     8438 1
    9138     5939     6541 1
    9139    15980    15995 1
    9140     9118     9137 1
    9141     7587     9864 1
    9142     9248     9607 1
    9143    14148    15297 1
    9144     1186     2638 1
    9145     5857     6826 1
    9146    11061    11451 1
    9147     2155     1970 1
    9148    16144    16299 1
    9149     8663     9093 1
    9150    15825    16941 1
    9151     5385     6799 1
    9152    15135    15240 1
    9153      717     1472 1
    9154     7462     7841 1
    9155    14381    14833 1
    9156     2182     2097 1
    9157    12297    13111 1
    9158     2302     2116 1
    9159     1014      400 1
    9160    12540    12728 1
    9161    12109    12408 1
    9162     8899     8132 1
    9163     2755     2456 1
    9164    12382    13083 1
    9165     7487     8214 1
    9166    12961    13525 1
    9167    15864    16373 1
    9168     9468     9587 1
    9169    10974    11760 1
    9170     8968     8122 1
    9171     2217     1875 1
    9172     8182     9870 1
    9173    11058    11492 1
    9174     1259      601 1
    9175     7634     9929 1
    9176    13665    14505 1
    9177     7962     8770 1
    9178     1420      132 1
    9179     6099     6555 1
    9180    14278    15281 1
    9181     4771     4552 1
    9182    10695    10753 1
    9183    15682    16829 1
    9184     4370    11143 1
    9185     5779     6706 1
    9186     7181     9290 1
    9187    12236    12522 1
    9188     4155     4220 1
    9189    10177    11595 1
    9190    10836    11057 1
    9191    11354    11566 1
    9192    11024    11690 1
    9193     1605     1500 1
    9194     7992     9224 1
    9195    14252    15351 1
    9196    16391    17086 1
    9197    12544    13383 1
    9198    16579    16868 1
    9199     7125     7129 1
    9200    11234    11304 1
    9201    11377    11604 1
    9202     6482     6620 1
    9203    12608    13284 1
    9204    12374    13385 1
    9205     3544     3550 1
    9206     8469     9909 1
    9207    12087    12477 1
    9208    12775    13306 1
    9209    13160    13418 1
    9210     5496     6029 1
    9211      286     5969 1
    9212     7425     8296 1
    9213     3797     3923 1
    9214    11895    12877 1
    9215    12647    12805 1
    9216    10275    11413 1
    9217    16307    16781 1
    9218     3981     4801 1
    9219     6044     6596 1
    9220    10516    10628 1
    9221     5430     6499 1
    9222     1201      116 1
    9223    10331    11722 1
    9224     1535     1474 1
    9225    15602    16993 1
    9226    13977    14610 1
    9227    15822    17048 1
    9228     8052    10020 1
    9229    15452    16841 1
    9230     6803     6865 1
    9231     6789     6936 1
    9232     8663     9119 1
    9233     6553     6878 1
    9234     2789     3361 1
    9235     7734     7840 1
    9236     8515     9983 1
    9237     1286      587 1
    9238      958     1330 1
    9239    10766    11420 1
    9240    10107    10513 1
    9241    13662    14123 1
    9242     6134     6812 1
    9243    16580    16607 1
    9244     7550     9824 1
    9245    12782    13256 1
    9246     9383     9789 1
    9247    16798    17136 1
    9248    12235    12953 1
    9249       53     1421 1
    9250     8049     8606 1
    9251    12168    13115 1
    9252     8695     8817 1
    9253    15668    15713 1
    9254     7292     8116 1
    9255     8789     9297 1
    9256    15407    15562 1
    9257     3241     2206 1
    9258     8923    10900 1
    9259    10732    10925 1
    9260     2452     8208 1
    9261    10982    11571 1
    9262    10516    10728 1
    9263     6286     6336 1
    9264     4064     4092 1
    9265    10359    11422 1
    9266     4221     4941 1
    9267     2201     1883 1
    9268      362      214 1
    9269    13716    14719 1
    9270    11483    11591 1
    9271     5526     6975 1
    9272     7214     9088 1
    9273     7675     9519 1
    9274    10387    10517 1
    9275    15830    16264 1
    9276       59      495 1
    9277    15429    16816 1
    9278     6294     6502 1
    9279      692     1407 1
    9280     3640     4044 1
    9281     4446     4530 1
    9282      578      376 1
    9283     2798     1202 1
    9284     3344     1959 1
    9285     6220     6523 1
    9286     1167     1223 1
    9287      676     1379 1
    9288    12861    13425 1
    9289    16106    16734 1
    9290    11678    11700 1
    9291    10841    11086 1
    9292     4589     4978 1
    9293     1124     5083 1
    9294     5951     6062 1
    9295    15563    15864 1
    9296     9038     9871 1
    9297     9540     9909 1
    9298     1517      432 1
    9299    10717    11536 1
    9300    12350    12657 1
    9301    16162    16536 1
    9302     3747     4597 1
    9303     7572     7790 1
    9304     1217     1469 1
    9305     8002     8512 1
    9306      785     1765 1
    9307     5947     6649 1
    9308    15720    16508 1
    9309       95      781 1
    9310      808      474 1
    9311     9048     8314 1
    9312     2499     2684 1
    9313    16010    16078 1
    9314     3493     2701 1
    9315     1547      431 1
    9316     5459     6300 1
    9317     7336     9335 1
    9318     9038     9082 1
    9319     2805     3309 1
    9320       80      512 1
    9321    13768    14066 1
    9322    16961    17132 1
    9323     3005     1944 1
    9324    10794    11340 1
    9325     7769     9896 1
    9326     2593     2662 1
    9327    15866    16650 1
    9328    16099    16421 1
    9329     8852     9377 1
    9330     1384      319 1
    9331    14497    14799 1
    9332     5763     6427 1
    9333    12562    13180 1
    9334    16956    17010 1
    9335     6036     6575 1
    9336     7554     7555 1
    9337    14056    14515 1
    9338     5552     6101 1
    9339     3168     2341 1
    9340    11410    11672 1
    9341     8418     8762 1
    9342     3107     1892 1
    9343     1285      650 1
    9344     7002    13615 1
    9345     6315     7079 1
    9346     1808     1898 1
    9347     4783     4591 1
    9348    13824    14677 1
    9349    13064    13445 1
    9350     2974     2622 1
    9351    11402    11667 1
    9352     5698     7031 1
    9353    10612    11435 1
    9354    14805    15204 1
    9355    15265    15420 1
    9356     4054     5344 1
    9357     1539     1335 1
    9358      952      137 1
    9359    12313    13248 1
    9360    12368    13561 1
    9361     6680     6865 1
    9362     8511     9383 1
    9363    13101    13266 1
    9364     5757     6872 1
    9365    12404    12676 1
    9366    10211    10219 1
    9367     1059     1260 1
    9368     1321      470 1
    9369     4342     5127 1
    9370     3443     1822 1
    9371    12616    13030 1
    9372     7688     7852 1
    9373    11975    11995 1
    9374    14894    17082 1
    9375      986     1717 1
    9376    16062    16629 1
    9377     4736     4922 1
    9378     1040      193 1
    9379     8124     8738 1
    9380     3021     2001 1
    9381    10254    10456 1
    9382       99     1181 1
    9383    14599    14851 1
    9384     2214     2116 1
    9385    12682    13032 1
    9386     5918     6642 1
    9387     3940     4375 1
    9388    10929    11013 1
    9389    12104    13421 1
    9390    10779    11769 1
    9391     8800     9817 1
    9392    10811    11748 1
    9393     4058     2585 1
    9394    15872    17055 1
    9395    13915    14965 1
    9396    16367    16798 1
    9397    15708    16386 1
    9398    10214    11274 1
    9399     7977     8249 1
    9400     5782     6600 1
    9401     8910     8786 1
    9402    14080    14742 1
    9403    13985    15029 1
    9404     7436     7447 1
    9405    13744    14843 1
    9406    11539    11601 1
    9407     4609     4617 1
    9408     3715    10747 1
    9409    12313    13129 1
    9410    13803    14804 1
    9411    13988    15357 1
    9412    10594    11106 1
    9413     7681     8513 1
    9414     2906     2739 1
    9415     2373     2611 1
    9416     2981     9772 1
    9417      820     1628 1
    9418     5769     6111 1
    9419      320      357 1
    9420     6347     6687 1
    9421     4013     5306 1
    9422     4283     5249 1
    9423     1291      460 1
    9424     4180     5066 1
    9425     4090     5231 1
    9426     8173     8479 1
    9427    14129    14199 1
    9428     3008     2048 1
    9429     9059     8547 1
    9430     9001     7515 1
    9431     3049     4782 1
    9432     4449     5085 1
    9433    13081    13345 1
    9434     1476      247 1
    9435     8890     8521 1
    9436    16597    16783 1
    9437     6514     6759 1
    9438    12164    12225 1
    9439    14018    15208 1
    9440     2802     2383 1
    9441     5777     6291 1
    9442     8974     8543 1
    9443     2368     8302 1
    9444    15549    16976 1
    9445    15529    16575 1
    9446     7196     9582 1
    9447      798      585 1
    9448    10625    11144 1
    9449     3681     5262 1
    9450     1391     1777 1
    9451     6061     6904 1
    9452     8915     8764 1
    9453    12635    12866 1
    9454    15053    15254 1
    9455     5482     6067 1
    9456     7907     8752 1
    9457    11947    12310 1
    9458     7744     9172 1
    9459    13773    14436 1
    9460    15617    16594 1
    9461     5732     6008 1
    9462     4132     5312 1
    9463     3132     3365 1
    9464    13965    14373 1
    9465     9561     9982 1
    9466     7349     9803 1
    9467    10617    10964 1
    9468    15488    15521 1
    9469     5689     5929 1
    9470     2968     2110 1
    9471    12111    13226 1
    9472    14014    15195 1
    9473     2895     3318 1
    9474    15895    17223 1
    9475    13881    14386 1
    9476       43     1064 1
    9477    13920    15073 1
    9478     4112     5165 1
    9479     5410     6398 1
    9480     4338     1989 1
    9481     4006     5122 1
    9482    12966    16945 1
    9483     1007     1399 1
    9484     1060     1416 1
    9485     2237     2712 1
    9486    13378    13505 1
    9487    10268    11389 1
    9488     8479     9875 1
    9489     5747     6365 1
    9490     6171     6240 1
    9491    10133    11063 1
    9492     6199     6875 1
    9493     4276     4325 1
    9494     7665     9911 1
    9495    14828    14859 1
    9496    15875    16485 1
    9497    14831    14942 1
    9498    14228    14920 1
    9499     7966     9374 1
    9500     3449     2441 1
    9501     1365      391 1
    9502     3656     4837 1
    9503    12022    12892 1
    9504     3833     5079 1
    9505    16268    17118 1
    9506     3967     4470 1
    9507     4026     4170 1
    9508    15572    17013 1
    9509     5764     6257 1
    9510     3096     2431 1
    9511     2962     2691 1
    9512    10797    10865 1
    9513      799     1205 1
    9514     2219     2744 1
    9515     8290     9181 1
    9516     9004     7512 1
    9517    12183    13217 1
    9518    13240    13320 1
    9519     5648     7104 1
    9520     5508     6772 1
    9521    14145    14759 1
    9522    14511    14631 1
    9523     2227     2248 1
    9524    15816    16265 1
    9525    16272    16651 1
    9526    14306    14613 1
    9527     5478     6693 1
    9528    13912    14591 1
    9529     2125     2726 1
    9530    12814    12991 1
    9531     8628     9439 1
    9532    13152    13477 1
    9533       52     1037 1
    9534     7267     8585 1
    9535    12692    13330 1
    9536    15147    16060 1
    9537     9375     9537 1
    9538     1083      270 1
    9539     7935     9252 1
    9540     4455     5246 1
    9541     5629     5853 1
    9542     9588     9674 1
    9543    10365    11802 1
    9544    12448    13338 1
    9545    11853    13625 1
    9546     7853     8729 1
    9547     3710     4522 1
    9548     4504     5264 1
    9549     3666     4847 1
    9550     7444     9157 1
    9551     3262     1966 1
    9552     3264     2575 1
    9553    15238    15421 1
    9554     1119     1516 1
    9555    14552    14647 1
    9556     4277     4709 1
    9557     8417     9131 1
    9558     8011     9116 1
    9559     1413      413 1
    9560     5964     6356 1
    9561    10252    10642 1
    9562     4518     5326 1
    9563    10914    11237 1
    9564     3095     2479 1
    9565      672     1489 1
    9566    12279    12782 1
    9567    16270    16649 1
    9568     1397     1504 1
    9569    12355    12491 1
    9570    15681    15861 1
    9571     6062     6252 1
    9572     6883     7145 1
    9573    15864    16362 1
    9574    13966    14068 1
    9575     4677     4556 1
    9576       39      603 1
    9577     4645     4844 1
    9578    10548    10848 1
    9579     7484     8583 1
    9580      499      591 1
    9581     1138     1240 1
    9582     3171     2030 1
    9583     9232     9400 1
    9584     3080     2278 1
    9585    15992    17055 1
    9586     4120     1764 1
    9587     5498     6311 1
    9588     2757     2707 1
    9589     2196     2508 1
    9590    13869    15276 1
    9591    12345    13627 1
    9592     9049     7907 1
    9593     4056     4816 1
    9594      725      781 1
    9595    12852    13257 1
    9596    10814    11718 1
    9597    12861    13530 1
    9598     4119     4814 1
    9599    12252    12819 1
    9600    13853    14442 1
    9601      400      200 1
    9602     7584     9364 1
    9603    13219    13448 1
    9604     4696     4824 1
    9605    14249    15199 1
    9606    15612    16260 1
    9607     4055     4820 1
    9608     3151     2489 1
    9609     6455     6658 1
    9610     6902     6919 1
    9611      956     5544 1
    9612    10452    11560 1
    9613    14258    14544 1
    9614    14158    14364 1
    9615    14158    14967 1
    9616     9048     8356 1
    9617     7258     8695 1
    9618     4535     5157 1
    9619     2815     2590 1
    9620    10302    11616 1
    9621    14254    15425 1
    9622    14093    14538 1
    9623    15903    16614 1
    9624     7157     9412 1
    9625    15705    16458 1
    9626    16325    16410 1
    9627    13840    14412 1
    9628    13686    14137 1
    9629    12646    13571 1
    9630     5012     5203 1
    9631    10185    10205 1
    9632     2459     2652 1
    9633    14568    15359 1
    9634    13901    15231 1
    9635     7247     9108 1
    9636     3016     3390 1
    9637    10556    10776 1
    9638    14325    15267 1
    9639    14754    15301 1
    9640    14767    15393 1
    9641    12510    12830 1
    9642     7404     9401 1
    9643     7466     9232 1
    9644      693     1536 1
    9645      817      278 1
    9646    12471    16945 1
    9647      968     1572 1
    9648     8480     8813 1
    9649     7229     8284 1
    9650     3766     4611 1
    9651     7674     9417 1
    9652    10308    10309 1
    9653     7321     8711 1
    9654    10189    10725 1
    9655    14457    15026 1
    9656     1034     1634 1
    9657     3261     3360 1
    9658     7168     8322 1
    9659    10807    11211 1
    9660      895     1734 1
    9661    16346    16700 1
    9662     5429     6215 1
    9663     9046     8703 1
    9664     8089     9222 1
    9665    15687    15763 1
    9666     9267     9462 1
    9667     9030     9959 1
    9668     8414     9841 1
    9669    11284    11771 1
    9670     2287     1875 1
    9671     3956     3981 1
    9672    14217    14444 1
    9673    13734    14803 1
    9674    15819    16468 1
    9675     6102     6904 1
    9676     3516     1934 1
    9677    16057    16840 1
    9678     1290     1472 1
    9679     7499     8232 1
    9680    15832    16329 1
    9681    12101    12302 1
    9682    13663    14682 1
    9683     2859     1255 1
    9684     3419     2320 1
    9685     6628     6670 1
    9686     7546     8702 1
    9687     3929     4052 1
    9688    14023    14089 1
    9689    12887    13300 1
    9690     7348     7501 1
    9691    13688    15389 1
    9692     2949     1887 1
    9693      976     5920 1
    9694     4107     5168 1
    9695     9953     7992 1
    9696    13771    14790 1
    9697    11892    12307 1
    9698     5706     6009 1
    9699     1103      418 1
    9700     8227     8628 1
    9701     5436     7128 1
    9702    14054    15051 1
    9703     5945     6158 1
    9704    13675    15216 1
    9705     4776     5336 1
    9706     5723     5897 1
    9707     6025     6562 1
    9708    16388    16730 1
    9709      533      547 1
    9710    15625    16018 1
    9711    12174    12528 1
    9712    15788    16683 1
    9713    16311    16582 1
    9714     6495     6817 1
    9715    14228    15415 1
    9716     7269     7400 1
    9717      933      416 1
    9718     2909     1949 1
    9719    12184    12786 1
    9720    12410    12950 1
    9721    14310    15068 1
    9722    12390    13495 1
    9723    11177    11319 1
    9724    10677    11534 1
    9725    14011    15129 1
    9726     4701     5315 1
    9727      953     1467 1
    9728     1195     1204 1
    9729     1182     1412 1
    9730     6663     7049 1
    9731    10692    11002 1
    9732     3031     2268 1
    9733    15753    16618 1
    9734     4495     5016 1
    9735    10490    11599 1
    9736     3313     2285 1
    9737     9047     7872 1
    9738    13681    14094 1
    9739     8275     9907 1
    9740      920     1633 1
    9741    16512    17192 1
    9742     2902     2973 1
    9743    15045    15394 1
    9744    10361    11261 1
    9745     4217     4318 1
    9746    10172    10820 1
    9747    10677    10903 1
    9748     5612     6938 1
    9749     3886     4124 1
    9750     8297    10051 1
    9751     6573    12541 1
    9752     3108     1899 1
    9753     3787     3933 1
    9754     7955     9447 1
    9755    14211    14741 1
    9756     1094     1295 1
    9757      719     1111 1
    9758     8510     9991 1
    9759    10665    11597 1
    9760    13900    14741 1
    9761     8486    14283 1
    9762     5529     5640 1
    9763     5753     6473 1
    9764     7894     8549 1
    9765     3131     2266 1
    9766     7386     9419 1
    9767    12105    12439 1
    9768    15691    16246 1
    9769    10299    11124 1
    9770    13345    15379 1
    9771     3394     3434 1
    9772    14829    15315 1
    9773    12105    12689 1
    9774       63     1259 1
    9775     6489     6661 1
    9776    13659    13982 1
    9777     4537     5338 1
    9778    16040    16979 1
    9779     7736     9790 1
    9780    14437    14448 1
    9781     4009     4789 1
    9782     1139      365 1
    9783     9027     7741 1
    9784    16346    16547 1
    9785     7870     9691 1
    9786     7653     9142 1
    9787     3919     4184 1
    9788     7321     7927 1
    9789    14738    15332 1
    9790    12051    13106 1
    9791     8493     8723 1
    9792    16420    16496 1
    9793    16109    16144 1
    9794     3711     3909 1
    9795    10380    11238 1
    9796     4370     4576 1
    9797     4367     4474 1
    9798    13695    14814 1
    9799     3414     1965 1
    9800     2162     1880 1
    9801     5623     5957 1
    9802    13362    13496 1
    9803    15295    15365 1
    9804    15633    15832 1
    9805    11005    11022 1
    9806    12535    13194 1
    9807    12497    13559 1
    9808    10678    11658 1
    9809    13636    14692 1
    9810     2062     2599 1
    9811     8256     9874 1
    9812    12266    13256 1
    9813     1208     4838 1
    9814     6263     6805 1
    9815     1107     1450 1
    9816    14659    15179 1
    9817    15881    16734 1
    9818    12134    13320 1
    9819     7236     9961 1
    9820     4551     4979 1
    9821     1546     1437 1
    9822    12050    13506 1
    9823    10121    11179 1
    9824     5907    10010 1
    9825     9145    10030 1
    9826     8418     8538 1
    9827     9020     8655 1
    9828     7847     8611 1
    9829     8939     9105 1
    9830    11473    11742 1
    9831     3457     3472 1
    9832     9431     9647 1
    9833     5666     6734 1
    9834     8360     8803 1
    9835    11899    12768 1
    9836    16484    16755 1
    9837      541      483 1
    9838     4238     5244 1
    9839     3742     5295 1
    9840     7370     9281 1
    9841       55      929 1
    9842     2115     2622 1
    9843    10176    10258 1
    9844     2189     1806 1
    9845     6131     6604 1
    9846    14903    16643 1
    9847     7833     8697 1
    9848    15550    16497 1
    9849     4180     4318 1
    9850     9466     9650 1
    9851     3095     3178 1
    9852     2129     2628 1
    9853    16129    16319 1
    9854     6186     6913 1
    9855       76      508 1
    9856     2209     2238 1
    9857      833     1640 1
    9858    13914    14522 1
    9859     2282     1846 1
    9860     1957     2470 1
    9861     8043     8598 1
    9862    12602    13531 1
    9863     4217     4670 1
    9864     6063     6202 1
    9865    10143    11152 1
    9866     7837     9302 1
    9867     1054      232 1
    9868    15494    15538 1
    9869     8180     9349 1
    9870     2921     2529 1
    9871     8918     8021 1
    9872    16291    16617 1
    9873      876      152 1
    9874     5439     5547 1
    9875     1825     2386 1
    9876       58      404 1
    9877     6087     6842 1
    9878    12227    13402 1
    9879     8701     9898 1
    9880    15930    16813 1
    9881     2797     3427 1
    9882     2818     2176 1
    9883     7201     7721 1
    9884    10508    11583 1
    9885     3970     3987 1
    9886     3236     5297 1
    9887    14079    15133 1
    9888     2853     2340 1
    9889     3066     2380 1
    9890    13893    15323 1
    9891    15749    16475 1
    9892     3259     2267 1
    9893    13936    15361 1
    9894     6797     7072 1
    9895    12699    13315 1
    9896     8813     9444 1
    9897    16539    16885 1
    9898     6038     6884 1
    9899    10915    10997 1
    9900     4639     4445 1
    9901     5709     6880 1
    9902    10572    11320 1
    9903     3575     4316 1
    9904    10118    10724 1
    9905     3683     4431 1
    9906     7612     9143 1
    9907    13875    14292 1
    9908    13670    14758 1
    9909    15548    15981 1
    9910    15821    16110 1
    9911    10524    10760 1
    9912     6006     6779 1
    9913     7339     9262 1
    9914    10332    10451 1
    9915    12847    13241 1
    9916     6210     6377 1
    9917     3985     4986 1
    9918     4925     5165 1
    9919    14169    14423 1
    9920    14010    15338 1
    9921    13820    15331 1
    9922     8295     8471 1
    9923     8627     9420 1
    9924    12261    12944 1
    9925    15675    16998 1
    9926    10932    10981 1
    9927     2263     2606 1
    9928     5749     6936 1
    9929     8123     8351 1
    9930    10324    11138 1
    9931     5783     5815 1
    9932    16461    16795 1
    9933     8631     9634 1
    9934     8474     9181 1
    9935    16439    17010 1
    9936     5414     5776 1
    9937    10287    11048 1
    9938     5780     6673 1
    9939     7718     9428 1
    9940      622      232 1
    9941    14030    15249 1
    9942     4416     5034 1
    9943     5726     6440 1
    9944      855     1465 1
    9945     7840     8310 1
    9946    15633    17100 1
    9947    14784    15313 1
    9948    13641    14081 1
    9949     7359     8605 1
    9950    14371    14709 1
    9951      912      562 1
    9952     2030     2713 1
    9953     9370     9582 1
    9954    11096    11615 1
    9955     6027    11663 1
    9956     6128     6142 1
    9957     6165     6324 1
    9958     4365     5031 1
    9959     1818     2523 1
    9960    10417    11336 1
    9961    13668    15293 1
    9962    13706    14393 1
    9963     1975     2397 1
    9964     3914     5185 1
    9965     3084     2458 1
    9966    10730    11762 1
    9967     5522     5977 1
    9968     4870     4897 1
    9969    12685    13001 1
    9970     5831     6064 1
    9971     4208     5025 1
    9972      718     1338 1
    9973    14551    14820 1
    9974       14    11998 1
    9975    10484    10734 1
    9976    10247    11205 1
    9977    10335    10723 1
    9978     7922     8229 1
    9979     8970     7169 1
    9980     3962     4939 1
    9981    15637    16068 1
    9982    12919    13570 1
    9983    16716    17023 1
    9984    15553    16569 1
    9985    10226    11453 1
    9986    16207    16883 1
    9987     3222     3330 1
    9988    11188    11505 1
    9989    11333    11509 1
    9990    12683    12863 1
    9991     2756     8089 1
    9992      991     1652 1
    9993    13961    14317 1
    9994     4328     4868 1
    9995     4703     4466 1
    9996    12429    13522 1
    9997      948     1258 1
    9998     9329     9924 1
    9999       52     1625 1
   10000    16610    17018 1
   10001     2485     2624 1
   10002    10469    10977 1
   10003     9024     8121 1
   10004     4858     5214 1
   10005    16423    16539 1
   10006    13862    14667 1
   10007     9501     9919 1
   10008    15991    16426 1
   10009     4961     5356 1
   10010     3623     4074 1
   10011     7227     8630 1
   10012     3143     2496 1
   10013    12054    12479 1
   10014     1992     2687 1
   10015    11111    11597 1
   10016     6669     6914 1
   10017    10661    11076 1
   10018     8089     8649 1
   10019     4410     4432 1
   10020     7261     9434 1
   10021     5422     6538 1
   10022    12268    12397 1
   10023    15529    16560 1
   10024    10405    11162 1
   10025    12102    13524 1
   10026     7924     8080 1
   10027    15656    16602 1
   10028     4937     5354 1
   10029    15766    17080 1
   10030    11104    11355 1
   10031     6529     6586 1
   10032     7996     8070 1
   10033    13632    14893 1
   10034     4092     4841 1
   10035     2980     2691 1
   10036     4337     4907 1
   10037     4839     4881 1
   10038     1223      264 1
   10039     4297     4406 1
   10040    14551    14752 1
   10041     4166     4347 1
   10042     1242      639 1
   10043     3426     2023 1
   10044    14464    15314 1
   10045    11861    12505 1
   10046     7717     9898 1
   10047     3394     1982 1
   10048    15456    17189 1
   10049     2329     5338 1
   10050    15543    16635 1
   10051     8784     9248 1
   10052     6070     6780 1
   10053      885     2450 1
   10054    16318    16513 1
   10055    13668    15019 1
   10056     6482     6609 1
   10057     5549     6688 1
   10058      891     1407 1
   10059    15993    16267 1
   10060     5966     6143 1
   10061    11259    11828 1
   10062     5508     5867 1
   10063     6442     6916 1
   10064     2897     3152 1
   10065     3741     3852 1
   10066    10745    11230 1
   10067    11893    13310 1
   10068     5931     6782 1
   10069    16690    17047 1
   10070    10989    11414 1
   10071      612     4673 1
   10072     3541     3980 1
   10073    10502    10531 1
   10074     7288     9891 1
   10075    10662    10840 1
   10076    10772    11324 1
   10077    16783    16826 1
   10078     4780     2460 1
   10079    14405    14880 1
   10080     8838     9724 1
   10081    14076    14997 1
   10082    16041    16797 1
   10083     5706     6700 1
   10084    14006    15062 1
   10085     6149     6231 1
   10086     6219     6545 1
   10087     3578     4627 1
   10088      900      182 1
   10089    15827    15844 1
   10090     3883     4450 1
   10091    10119    11230 1
   10092     3605     4285 1
   10093     6342     6549 1
   10094     1121      513 1
   10095    12609    15632 1
   10096     4691     4762 1
   10097     6184     7034 1
   10098    10854    11061 1
   10099     4673     5266 1
   10100      963      723 1
   10101     3255     2485 1
   10102     8981     8503 1
   10103    13976    14742 1
   10104     4033     4668 1
   10105     6098     7024 1
   10106     7491     7737 1
   10107    10866    11365 1
   10108     3922      408 1
   10109     7737     9859 1
   10110    10353    11646 1
   10111    11248    11766 1
   10112    16527    17082 1
   10113    12916    13431 1
   10114     7272     7514 1
   10115    10463    11554 1
   10116     4151     5006 1
   10117    14109    14892 1
   10118    14184    14954 1
   10119    14355    15354 1
   10120     3174     1995 1
   10121     2940     2228 1
   10122    12440    12815 1
   10123     3270     3334 1
   10124    16790    17077 1
   10125     1116      560 1
   10126    11450    11530 1
   10127    10071    10848 1
   10128     3995     4987 1
   10129    12720    12990 1
   10130    11945    13007 1
   10131     3759     4206 1
   10132     8778     9557 1
   10133     9677     9920 1
   10134     9550     9939 1
   10135    14075    15170 1
   10136    12239    13351 1
   10137    10530    11825 1
   10138       45      131 1
   10139     7516     8820 1
   10140     4815     5358 1
   10141    12533    13148 1
   10142     7716     9536 1
   10143    16162    17200 1
   10144     1272     1586 1
   10145     8316     9232 1
   10146    12252    13358 1
   10147     1100      176 1
   10148    10555    10645 1
   10149    13889    15318 1
   10150    12287    13230 1
   10151      888      573 1
   10152      686      699 1
   10153    12055    12100 1
   10154     8014     9800 1
   10155    13005    13189 1
   10156     7617     9663 1
   10157    10846    15636 1
   10158    10094    10658 1
   10159    13001    13326 1
   10160     2788     3184 1
   10161     8413     9859 1
   10162    13756    15395 1
   10163    12599    12985 1
   10164    10977    11529 1
   10165     5493     6935 1
   10166     4721     4451 1
   10167     9201     9984 1
   10168     5828     6850 1
   10169    12945    13175 1
   10170    10458    11121 1
   10171     7360     7553 1
   10172     5051     5080 1
   10173    15676    16629 1
   10174     2997     2460 1
   10175    10367    10791 1
   10176    12263    13300 1
   10177    15700    16306 1
   10178    10473    11604 1
   10179     3104     9255 1
   10180    10070    11615 1
   10181    15829    16445 1
   10182     5394     6745 1
   10183     3548     2083 1
   10184    14158    14430 1
   10185     8235     9600 1
   10186     2126     2377 1
   10187      535      363 1
   10188     8594     8625 1
   10189     7511     8029 1
   10190    10091    11713 1
   10191    12181    13177 1
   10192      640     1679 1
   10193     8592     8608 1
   10194    14884    15008 1
   10195     4309     4664 1
   10196     2271     2547 1
   10197     3900     5332 1
   10198    12955    13196 1
   10199     5443     5898 1
   10200    13979    15089 1
   10201    15466    16033 1
   10202    15541    16759 1
   10203     7739     9648 1
   10204     3966     4925 1
   10205    12309    12709 1
   10206    13708    15398 1
   10207     7328     9139 1
   10208     5992     6955 1
   10209     2585     8237 1
   10210     7376     8615 1
   10211    13981    15315 1
   10212    16384    16602 1
   10213    13681    14132 1
   10214    10718    10978 1
   10215    12924    13486 1
   10216    14764    15132 1
   10217     4014     4357 1
   10218     3218     2360 1
   10219     6110     6519 1
   10220     7165     7898 1
   10221      955      281 1
   10222     7305     8656 1
   10223     7386     9951 1
   10224     5652     6842 1
   10225    12070    12450 1
   10226    11113    11557 1
   10227    15760    16121 1
   10228     2146     2466 1
   10229     4655     5213 1
   10230     5822     6654 1
   10231     8937     9999 1
   10232    12337    13304 1
   10233    15447    15553 1
   10234     4335     4625 1
   10235    10735    11483 1
   10236    12197    13592 1
   10237    15768    16507 1
   10238    13722    13755 1
   10239    14846    14907 1
   10240     5807     5838 1
   10241     3137     2476 1
   10242    10812    11197 1
   10243     3465     2423 1
   10244    15250    15270 1
   10245      549      565 1
   10246     3025     2343 1
   10247     8411     8782 1
   10248     4243    10310 1
   10249    13641    15002 1
   10250     3006     2030 1
   10251    11046    11468 1
   10252    10438    11267 1
   10253     5715     5990 1
   10254    13132    13315 1
   10255     4573     5012 1
   10256      637      210 1
   10257    16004    16401 1
   10258    14436    15192 1
   10259    10228    10433 1
   10260    12547    12596 1
   10261     7957     8030 1
   10262     8523     9526 1
   10263     8929     6618 1
   10264     1146      284 1
   10265     3213     2594 1
   10266     2942     2428 1
   10267    10814    10834 1
   10268     9240     9490 1
   10269     8562    10016 1
   10270     1740     2627 1
   10271     5870     6176 1
   10272     3109     2588 1
   10273    11490    11597 1
   10274     2806     3287 1
   10275    13089    13227 1
   10276    12295    12772 1
   10277     6523     7077 1
   10278     3615     2746 1
   10279     2130     2432 1
   10280    16552    17119 1
   10281     1345      373 1
   10282     9090     9725 1
   10283     4339     4641 1
   10284     5548     6622 1
   10285     7960     9195 1
   10286    12294    13374 1
   10287      256    12513 1
   10288    15439    16527 1
   10289     4071     4143 1
   10290    10799    11805 1
   10291    11901    13355 1
   10292    13111    13498 1
   10293     1331     1353 1
   10294    15945    17073 1
   10295    13899    15102 1
   10296     4047     5345 1
   10297     3836     4977 1
   10298    13281    13344 1
   10299    10610    10779 1
   10300     7164     8175 1
   10301     7458     9967 1
   10302    15715    16830 1
   10303     1145      162 1
   10304     6347     6425 1
   10305    16155    17153 1
   10306    14171    14880 1
   10307     5147     5273 1
   10308     3569     2288 1
   10309    13177    13382 1
   10310    13944    14994 1
   10311      236      290 1
   10312    12070    13278 1
   10313     7745     7809 1
   10314     1552      354 1
   10315    13984    15187 1
   10316     3413     1909 1
   10317     1068      373 1
   10318     4010     4855 1
   10319        7      958 1
   10320     4572     4934 1
   10321    11961    13420 1
   10322     9116     9293 1
   10323    13728    14163 1
   10324    12837    13479 1
   10325     7853     9252 1
   10326     2941     3038 1
   10327    13848    15135 1
   10328    14093    14278 1
   10329      959     1122 1
   10330    10642    10919 1
   10331    15035    15139 1
   10332     4365     4469 1
   10333      678     1422 1
   10334    15897    17154 1
   10335    13794    14712 1
   10336    15696    16900 1
   10337    15728    16638 1
   10338    16874    16979 1
   10339    14801    15302 1
   10340     5702     6981 1
   10341    14271    14330 1
   10342       81      813 1
   10343     9214    10024 1
   10344    10075    10181 1
   10345       90      431 1
   10346     4808     4981 1
   10347    14584    15390 1
   10348     1105      449 1
   10349    10234    11598 1
   10350      780     1701 1
   10351    16233    16608 1
   10352     7198     8505 1
   10353    15098    15357 1
   10354    10424    10859 1
   10355     8690     8772 1
   10356    16007    16666 1
   10357     3518     2305 1
   10358    15732    16205 1
   10359     2804     3416 1
   10360     3060     3211 1
   10361     3324     3485 1
   10362     5659     6959 1
   10363     3886     4204 1
   10364    15160    15226 1
   10365     2929     3217 1
   10366     3508     2712 1
   10367    16156    16430 1
   10368    10842    11254 1
   10369     1167     1226 1
   10370    10965    11279 1
   10371    16861    17006 1
   10372    13781    14277 1
   10373     8628     9754 1
   10374    16652    16717 1
   10375    15883    15933 1
   10376     8739     9461 1
   10377    16136    16185 1
   10378    10723    11043 1
   10379     7746     8201 1
   10380     3462     2665 1
   10381    10348    11247 1
   10382     3366     1829 1
   10383      933     1722 1
   10384     7483     9420 1
   10385    16318    16532 1
   10386    10420    11134 1
   10387    16369    16422 1
   10388     8905     9512 1
   10389    16180    16381 1
   10390     7799     8827 1
   10391     9439     9879 1
   10392     4883     5157 1
   10393     8536     9704 1
   10394     7572     9375 1
   10395     1928     2661 1
   10396     2312     2389 1
   10397    15613    16065 1
   10398     7885     8031 1
   10399     7273     7469 1
   10400    10094    10292 1
   10401    10126    11191 1
   10402    15542    16686 1
   10403     7318     9638 1
   10404     8201     9700 1
   10405    16018    16296 1
   10406     4687     4485 1
   10407    11997    12881 1
   10408    10155    10358 1
   10409    11864    11982 1
   10410    15116    15300 1
   10411    13740    14839 1
   10412    12921    13183 1
   10413    12397    12687 1
   10414    16400    17070 1
   10415     6035     6717 1
   10416    14489    14592 1
   10417    13857    14239 1
   10418     1264     1599 1
   10419     7624     9551 1
   10420     8915     7815 1
   10421    12045    13578 1
   10422    12529    12923 1
   10423    14176    14522 1
   10424     5472     6567 1
   10425     5885     6224 1
   10426     6896     7017 1
   10427    12110    12477 1
   10428     4635     4639 1
   10429    15009    15012 1
   10430     5516     6714 1
   10431     2262     1827 1
   10432    10440    10465 1
   10433     3832     5252 1
   10434       42      810 1
   10435     3033     1859 1
   10436     7535     9597 1
   10437     8795     9322 1
   10438     8888     7431 1
   10439     3754     4352 1
   10440     1193      517 1
   10441      710      821 1
   10442     1214      534 1
   10443     2762     3191 1
   10444     2245     2040 1
   10445    15802    16699 1
   10446     1090     2491 1
   10447     7788     8807 1
   10448     4037     4127 1
   10449    13926    14828 1
   10450     8109     8622 1
   10451     4116     4143 1
   10452     5381     6990 1
   10453    12654    12766 1
   10454     8723     8792 1
   10455     3859     5309 1
   10456     7740    10033 1
   10457    13734    14779 1
   10458    10147    10162 1
   10459    15496    16361 1
   10460     1072     1666 1
   10461     9746     9890 1
   10462     3993     5189 1
   10463     3669     3948 1
   10464     8074     9747 1
   10465    10793    11367 1
   10466    12164    12201 1
   10467     5607     6584 1
   10468     9009     9211 1
   10469     9294     9786 1
   10470     3012     2150 1
   10471     5664     5690 1
   10472     7565     9614 1
   10473     7327     9108 1
   10474     9057     8225 1
   10475    11865    11956 1
   10476     7189     7612 1
   10477    14717    15392 1
   10478    14414    15338 1
   10479    15578    16174 1
   10480    14241    14478 1
   10481    16019    17123 1
   10482    10867    11038 1
   10483     4593     5199 1
   10484     5686     6546 1
   10485     2987     3550 1
   10486    14116    14398 1
   10487    10504    10724 1
   10488     7491     9867 1
   10489     2906     3035 1
   10490     7292    10048 1
   10491    11989    12545 1
   10492    15430    16018 1
   10493    16297    16872 1
   10494    10828    10866 1
   10495     7405     9507 1
   10496    12182    12944 1
   10497     8898     8841 1
   10498    11873    13465 1
   10499     2165     2422 1
   10500     8607     9595 1
   10501     9060     9415 1
   10502     1000      251 1
   10503     2831     1959 1
   10504     5330     5336 1
   10505    11887    13365 1
   10506     6570     6631 1
   10507     3303     3564 1
   10508     1898     2484 1
   10509    14421    14542 1
   10510     2991      676 1
   10511    12555    13380 1
   10512    10480    11391 1
   10513    16135    16853 1
   10514     1335      337 1
   10515     7485     9666 1
   10516     6332     6841 1
   10517    11021    11562 1
   10518     1863     2658 1
   10519     2812     3095 1
   10520     3483     2536 1
   10521     5496    11823 1
   10522      775     1447 1
   10523     8880     9543 1
   10524     6201     6383 1
   10525     8548     8657 1
   10526     8432     9701 1
   10527    11485    11826 1
   10528     5909     6017 1
   10529      787      595 1
   10530     6322     6786 1
   10531    10753    11721 1
   10532     2907     2692 1
   10533     9443     9739 1
   10534    10493    11591 1
   10535     5477     5936 1
   10536    11872    13595 1
   10537     6187     6922 1
   10538    15427    15649 1
   10539     7968     9245 1
   10540    12927    13410 1
   10541    10759    10897 1
   10542     8683     9231 1
   10543    15567    16696 1
   10544    15752    16708 1
   10545     7190     7808 1
   10546     3048     3125 1
   10547     8403     9444 1
   10548    13666    13694 1
   10549    14207    14219 1
   10550     4280     4314 1
   10551     3782    16221 1
   10552    10113    11156 1
   10553     5652     9372 1
   10554    10529    10864 1
   10555     6417     6909 1
   10556     5409     6241 1
   10557     2666    15264 1
   10558    12412    12726 1
   10559     2331     2012 1
   10560     3105     3473 1
   10561     2490     2524 1
   10562    12727    13369 1
   10563     8821     9787 1
   10564     3501     1899 1
   10565     5462     6488 1
   10566    15673    16822 1
   10567     3924     4679 1
   10568    14293    17178 1
   10569     3087     2674 1
   10570    12006    12987 1
   10571    10146    10420 1
   10572     8362     8618 1
   10573     4760     4552 1
   10574    12143    13554 1
   10575    12795    12915 1
   10576     1483      374 1
   10577     7823     9172 1
   10578     8630     9091 1
   10579    14035    14532 1
   10580    10135    10753 1
   10581     2875     1931 1
   10582    11053    11101 1
   10583     8922     7248 1
   10584    15501    15842 1
   10585     7061     7111 1
   10586     1056     1546 1
   10587     1613      427 1
   10588    17095    17164 1
   10589     4046     4520 1
   10590     9383     9700 1
   10591    13147    13393 1
   10592    14841    15400 1
   10593    15963    17032 1
   10594     8934     8527 1
   10595     6333     6511 1
   10596     2527     2734 1
   10597    10192    11346 1
   10598     3945     4838 1
   10599    10468    10900 1
   10600     7899     9397 1
   10601     8960     7585 1
   10602    10553    10623 1
   10603    10818    11025 1
   10604     7824     8362 1
   10605     2886     2123 1
   10606     1589     1650 1
   10607     4249     1206 1
   10608    12418    13073 1
   10609    11403    11647 1
   10610     5638     6362 1
   10611    12080    13449 1
   10612     3536     2172 1
   10613    13949    15096 1
   10614    15066    15340 1
   10615     5775     5842 1
   10616    10443    11624 1
   10617     7199     9306 1
   10618    13660    14507 1
   10619    12394    13254 1
   10620     5375     6561 1
   10621     1733     1375 1
   10622     6160     6655 1
   10623     4709     5131 1
   10624    10358    11776 1
   10625      707      741 1
   10626     5589     6483 1
   10627     5601     6313 1
   10628     3343     2223 1
   10629     7282     8072 1
   10630    15975    16675 1
   10631    15436    15736 1
   10632     4114     4623 1
   10633     1346      172 1
   10634     3259     1948 1
   10635    10442    11534 1
   10636     3023     3240 1
   10637     2875     2519 1
   10638     8919     8425 1
   10639    11148    11578 1
   10640    15794    16298 1
   10641     4227     5287 1
   10642     7679     9238 1
   10643    13097    13454 1
   10644     4624     4861 1
   10645    13841    15027 1
   10646     2757     3062 1
   10647     3882     5342 1
   10648     4377     5098 1
   10649    13793    14783 1
   10650     8896     7659 1
   10651    10761    11834 1
   10652    14015    15051 1
   10653     9382    10051 1
   10654    16202    16990 1
   10655    11982    12676 1
   10656     5501     6787 1
   10657     1628     6244 1
   10658     9083     9084 1
   10659    12245    13079 1
   10660     3985     4204 1
   10661    15720    16436 1
   10662    10498    11424 1
   10663     2173     2614 1
   10664     3182     3288 1
   10665     3736     4647 1
   10666    14798    14874 1
   10667    10349    11202 1
   10668     2223     2120 1
   10669     5557     7123 1
   10670     1339     1782 1
   10671    12014    13526 1
   10672     8155     9348 1
   10673    15505    16440 1
   10674     7845     9835 1
   10675     1802     1853 1
   10676    13800    15360 1
   10677     2393    13918 1
   10678     7167     7938 1
   10679     1659     1728 1
   10680     8941     9355 1
   10681    11858    13406 1
   10682    12803    13264 1
   10683    13655    14714 1
   10684    15697    16536 1
   10685     7436     9660 1
   10686     8990    10023 1
   10687    16257    16817 1
   10688     5648     6490 1
   10689     9156    10028 1
   10690    12521    12555 1
   10691     5487     6497 1
   10692    14023    14310 1
   10693    15874    16968 1
   10694    13265    14652 1
   10695      484      266 1
   10696     6548     8574 1
   10697     2979     2988 1
   10698     6508     7043 1
   10699     3111     2725 1
   10700    13698    13743 1
   10701    12368    13171 1
   10702     2984     2448 1
   10703     4454     5220 1
   10704    14756    14827 1
   10705     3030     3155 1
   10706     5800     7217 1
   10707    12249    13389 1
   10708    16589    17112 1
   10709     4377     4535 1
   10710    15438    16135 1
   10711    16143    16252 1
   10712       65       16 1
   10713     3594     3975 1
   10714    16512    16777 1
   10715     5757     6578 1
   10716    14085    14791 1
   10717     8550     8580 1
   10718    15776    16434 1
   10719     5987     6629 1
   10720     8023     9678 1
   10721      569     1581 1
   10722    11387    11591 1
   10723     5841     6807 1
   10724    15336    16525 1
   10725     1127     1709 1
   10726     8861     7238 1
   10727    11309    11324 1
   10728      523      161 1
   10729     8116     8520 1
   10730      971      411 1
   10731     8019     8338 1
   10732    15837    16184 1
   10733    10433    11129 1
   10734     4266     5316 1
   10735     8362     9300 1
   10736     1232      179 1
   10737     5569     7021 1
   10738    12807    13608 1
   10739     5746     6778 1
   10740    14561    15080 1
   10741     3914     4089 1
   10742    13787    14688 1
   10743      982     1467 1
   10744     2421     2723 1
   10745     3944     4920 1
   10746     3487     2562 1
   10747     3044     3209 1
   10748     2445     2705 1
   10749    14078    14300 1
   10750     8016     9216 1
   10751    11948    13195 1
   10752    12343    13619 1
   10753     4102     4903 1
   10754    10173    11717 1
   10755     7959     9630 1
   10756     5912    11156 1
   10757     3265     2017 1
   10758    13751    15302 1
   10759    10324    11159 1
   10760     3629     3855 1
   10761     7275     9411 1
   10762    11253    11395 1
   10763    15759    15857 1
   10764     2180     1862 1
   10765    12808    13353 1
   10766    16336    16786 1
   10767     3550     2512 1
   10768     2865     1869 1
   10769     8674     9381 1
   10770    10095    10697 1
   10771    11914    12696 1
   10772     4441     5196 1
   10773     8808     9378 1
   10774    12224    12413 1
   10775    11317    11650 1
   10776    12097    12098 1
   10777    12226    13534 1
   10778    12132    13383 1
   10779    16361    16439 1
   10780     6390     6823 1
   10781    16497    16501 1
   10782      689     1176 1
   10783    16777    16974 1
   10784    10581    11094 1
   10785    16292    16375 1
   10786    15883    16766 1
   10787     5970     6725 1
   10788     9069     7424 1
   10789     7382     8120 1
   10790    13965    14649 1
   10791    11856    12300 1
   10792    15507    16129 1
   10793     7222     7356 1
   10794    13651    14397 1
   10795     3959     5143 1
   10796     1394      288 1
   10797    10373    11513 1
   10798    10142    11665 1
   10799    15262    15284 1
   10800     8082    14324 1
   10801      806     1324 1
   10802    10585    11370 1
   10803    13049    13110 1
   10804     8783     9934 1
   10805     3556     2552 1
   10806     1103      338 1
   10807     5851     6199 1
   10808     5834     7107 1
   10809    13812    14173 1
   10810    16015    16230 1
   10811     5841     6616 1
   10812     2280     2644 1
   10813     3319     2229 1
   10814     2470     2482 1
   10815     8827     9098 1
   10816      843      611 1
   10817     2291     1841 1
   10818    16133    16973 1
   10819     7240     9448 1
   10820     7545     9118 1
   10821    15474    17064 1
   10822     8070     8163 1
   10823     8276     8767 1
   10824     9159     9857 1
   10825     3745     4974 1
   10826      671      210 1
   10827    11961    13272 1
   10828     7820     9078 1
   10829     2888     2131 1
   10830     6296     6657 1
   10831     4178     4566 1
   10832     7772     7823 1
   10833     3133     1981 1
   10834     3913     4516 1
   10835     3798     3938 1
   10836      800      276 1
   10837     1500      218 1
   10838     9780    11815 1
   10839     8390     8493 1
   10840     5021     5039 1
   10841     7431     9362 1
   10842     8325    10044 1
   10843     9908    10230 1
   10844    14144    14279 1
   10845    16223    16261 1
   10846     7488     7560 1
   10847    12532    13018 1
   10848     7169     7504 1
   10849     4088     4437 1
   10850     4877     4951 1
   10851     6218     6837 1
   10852    10254    11379 1
   10853      557     1383 1
   10854     3039     1788 1
   10855     2115     1926 1
   10856     5474     6392 1
   10857    13170    13318 1
   10858    12079    12133 1
   10859     3139     3427 1
   10860     3028     2000 1
   10861      743     1494 1
   10862    10323    11783 1
   10863     5472     5918 1
   10864     7963     8424 1
   10865     2880     2381 1
   10866     2803     2389 1
   10867    11885    12562 1
   10868     3945     5055 1
   10869     3976     4387 1
   10870     6441     6705 1
   10871     3812     5319 1
   10872     6032     6269 1
   10873    12231    13415 1
   10874     4138     4407 1
   10875     7202     8596 1
   10876     1210     6058 1
   10877     3809     3862 1
   10878     6925     7037 1
   10879     4159     4370 1
   10880     8628     9459 1
   10881     6327     6935 1
   10882    12123    12510 1
   10883      901     1149 1
   10884     7262     9885 1
   10885     3296     1844 1
   10886     1804     2654 1
   10887      330      141 1
   10888    12316    12919 1
   10889      933      452 1
   10890     2041     2114 1
   10891     8900     7317 1
   10892    12296    12466 1
   10893     6876     8200 1
   10894    16352    17144 1
   10895    10817    11659 1
   10896    16478    16891 1
   10897     3651     3966 1
   10898     4024     4502 1
   10899     4793     4821 1
   10900     7183     9190 1
   10901     3842     5303 1
   10902    10431    10633 1
   10903      950      809 1
   10904    16938    16989 1
   10905     6635     6950 1
   10906     4275     5043 1
   10907     8867     7234 1
   10908     8579     9370 1
   10909     7317     7708 1
   10910     8408     9987 1
   10911     4924     5185 1
   10912    12156    12239 1
   10913      901     1107 1
   10914    15025    15424 1
   10915    12279    12771 1
   10916    15532    16789 1
   10917     8422     9516 1
   10918     7542     9422 1
   10919     3635     4887 1
   10920    13731    14728 1
   10921    10205    10798 1
   10922     3784     4963 1
   10923    14456    15104 1
   10924     4337     5014 1
   10925     7509     8437 1
   10926    10988    11526 1
   10927    10446    11417 1
   10928     3578     4010 1
   10929    16220    16645 1
   10930    10672    11727 1
   10931    14390    15303 1
   10932     6008     6463 1
   10933    10777    11444 1
   10934    15475    15478 1
   10935    12734    12819 1
   10936     3500     3562 1
   10937    13687    14046 1
   10938     8296     8316 1
   10939    14506    15262 1
   10940     7256     9074 1
   10941     7880     8453 1
   10942    16413    16842 1
   10943     3959     4095 1
   10944    10400    10666 1
   10945     3059     2102 1
   10946     3700     5323 1
   10947     1069      245 1
   10948     9277    10052 1
   10949    15478    16313 1
   10950    10681    11200 1
   10951    16334    17053 1
   10952    13669    15170 1
   10953    13584    16093 1
   10954    13907    14434 1
   10955     7646     7686 1
   10956    10314    10390 1
   10957     2755     2382 1
   10958    16593    16917 1
   10959    13289    13315 1
   10960     2981     3308 1
   10961    11848    13493 1
   10962     4270     5240 1
   10963     2187     2632 1
   10964     8788     9973 1
   10965    10183    11168 1
   10966     5839     6151 1
   10967     5849     6453 1
   10968     2798      705 1
   10969    10410    10682 1
   10970     2243     1800 1
   10971     3859     4882 1
   10972    12271    13255 1
   10973     5742     6810 1
   10974       54     1723 1
   10975      937     1152 1
   10976     5678     5685 1
   10977     8986     7683 1
   10978     4585     5211 1
   10979     8529     9422 1
   10980    15677    16491 1
   10981     9013     7309 1
   10982    11070    11169 1
   10983     2987     2139 1
   10984    11938    13370 1
   10985     4402     5137 1
   10986     3754     4117 1
   10987     1125     1760 1
   10988    15508    16841 1
   10989    13972    14298 1
   10990    13764    14533 1
   10991     5616     6757 1
   10992    12199    13233 1
   10993     1938     2589 1
   10994    12267    12763 1
   10995    10427    11401 1
   10996     8912     7805 1
   10997     2347     2616 1
   10998    13847    15035 1
   10999     7301     9947 1
   11000     7939     9355 1
   11001     4343     5130 1
   11002     2784     3145 1
   11003    10876    11440 1
   11004     5381     5564 1
   11005     3110     3337 1
   11006     2537     2670 1
   11007     7435     9804 1
   11008      975      599 1
   11009     7588     9144 1
   11010    16383    16400 1
   11011    12913    13508 1
   11012    13348    13398 1
   11013    13045    13606 1
   11014     7357     9709 1
   11015     5733     6713 1
   11016       84     1082 1
   11017     3189     2509 1
   11018    15841    16277 1
   11019    13714    14902 1
   11020    10107    11092 1
   11021     5462     5871 1
   11022     9026     9193 1
   11023      802      141 1
   11024     3718     5149 1
   11025    16669    16844 1
   11026     1355     1783 1
   11027     8387     9116 1
   11028      757      777 1
   11029     9489     9710 1
   11030     7203     9441 1
   11031     5692     5788 1
   11032     2103     2343 1
   11033     2892     2353 1
   11034    10898    11515 1
   11035    15852    16850 1
   11036     4293     4966 1
   11037     3498     2736 1
   11038    15668    15903 1
   11039    10435    11753 1
   11040     7701     9970 1
   11041    14624    14962 1
   11042    16842    16999 1
   11043     2759     2675 1
   11044    12331    13506 1
   11045    11601    11759 1
   11046     3705     3724 1
   11047     5603     6957 1
   11048    16149    16335 1
   11049     7704     8146 1
   11050     3393     2407 1
   11051    10351    11325 1
   11052    10485    11727 1
   11053     7959     8067 1
   11054    13925    14640 1
   11055    14423    14874 1
   11056    10074    10821 1
   11057    10265    11112 1
   11058    14164    14178 1
   11059    14989    15231 1
   11060     5376     6022 1
   11061     1151      193 1
   11062     3252     2602 1
   11063    16074    16285 1
   11064     2782     3424 1
   11065    12710    13506 1
   11066     3695     4757 1
   11067     1190     1252 1
   11068    12310    13588 1
   11069     5718     5859 1
   11070    15685    15889 1
   11071    12459    13253 1
   11072     4115     4815 1
   11073    10453    11116 1
   11074     4272     4791 1
   11075    10418    10565 1
   11076    10335    10427 1
   11077    12362    13574 1
   11078    16137    16570 1
   11079     5463     7088 1
   11080     1169      180 1
   11081    12389    13618 1
   11082    14902    14979 1
   11083     8116     8431 1
   11084     5360     6103 1
   11085    13812    15263 1
   11086     9350     9904 1
   11087     4052     4982 1
   11088     1532     1409 1
   11089    16037    16178 1
   11090     9627    10024 1
   11091     1158     1539 1
   11092     2974     3005 1
   11093     2904     1824 1
   11094    14578    15051 1
   11095     3858    10665 1
   11096     3928     4965 1
   11097    14588    14605 1
   11098     5949     7053 1
   11099    10396    10722 1
   11100     7709     9358 1
   11101     2861     3514 1
   11102     8002     8548 1
   11103     1146     1677 1
   11104     6538     7078 1
   11105     9066     9362 1
   11106      622     1714 1
   11107     1269      197 1
   11108     8463     9742 1
   11109     5468     6563 1
   11110    12908    13317 1
   11111     7411     9207 1
   11112     1247     1385 1
   11113    16546    16803 1
   11114      770     1768 1
   11115     1057      211 1
   11116    12026    12680 1
   11117    17037    17221 1
   11118    12591    12790 1
   11119     7411     9363 1
   11120    16394    16647 1
   11121     4772     4918 1
   11122     3183     3261 1
   11123     5860     5929 1
   11124     7373     8485 1
   11125     6275     6371 1
   11126    13146    13459 1
   11127    15772    16278 1
   11128     7948     8363 1
   11129    11890    13002 1
   11130     2802     3368 1
   11131     7925     9761 1
   11132     7882     9965 1
   11133    16610    17148 1
   11134       34     5962 1
   11135     7219     9820 1
   11136    14685    14952 1
   11137     3648     4723 1
   11138       83      915 1
   11139     8047     8783 1
   11140    12287    13378 1
   11141    12483    12962 1
   11142     8867     7397 1
   11143    10262    11189 1
   11144    12787    12889 1
   11145     5622     6943 1
   11146    16525    16959 1
   11147    14266    14312 1
   11148    10188    10307 1
   11149    12788    13607 1
   11150     2825     2096 1
   11151    16552    16949 1
   11152     3157     2227 1
   11153     7723     9136 1
   11154     4029     4090 1
   11155    10143    10425 1
   11156     5479     6669 1
   11157     2331     2440 1
   11158     9245     9514 1
   11159     7777     8761 1
   11160     3781     3955 1
   11161     1133     1452 1
   11162    12084    12129 1
   11163     6813     6832 1
   11164    15964    15978 1
   11165     7580     7671 1
   11166     3954     5262 1
   11167     2860     1809 1
   11168      966      456 1
   11169    16680    16806 1
   11170     6389     7079 1
   11171    14446    15065 1
   11172     4025     4905 1
   11173    12853    13027 1
   11174     7649     7801 1
   11175     5960     6622 1
   11176    15471    16352 1
   11177     4756     4431 1
   11178     1104      580 1
   11179    15470    16969 1
   11180    15635    16568 1
   11181    12091    12499 1
   11182     6163     7963 1
   11183    10510    10679 1
   11184     5463     5577 1
   11185     8986     9968 1
   11186     7780     9396 1
   11187     3286     1886 1
   11188     3824     4569 1
   11189     7930    10052 1
   11190     2048     2596 1
   11191    14186    14483 1
   11192    15718    16911 1
   11193    14528    15038 1
   11194     8013     8769 1
   11195    10244    11630 1
   11196     5457     6873 1
   11197    10072    11211 1
   11198    12004    13062 1
   11199     8483     9863 1
   11200      922      503 1
   11201     9458     9703 1
   11202     8441     8705 1
   11203     2350     2367 1
   11204    14450    14837 1
   11205     1682     1396 1
   11206     6732     6740 1
   11207    15978    16089 1
   11208     7598     8268 1
   11209    12415    12828 1
   11210    14346    14996 1
   11211     7892     8144 1
   11212    14344    15172 1
   11213     9283     9880 1
   11214    13103    13346 1
   11215    10060    11616 1
   11216    14488    15123 1
   11217     6464     6973 1
   11218     4240     4558 1
   11219    14085    14602 1
   11220    10720    10850 1
   11221    16175    16973 1
   11222    16455    17065 1
   11223     8378     9636 1
   11224     3871     5282 1
   11225     7939     9412 1
   11226       95     1527 1
   11227     7776     8563 1
   11228    16279    16354 1
   11229     9030     7775 1
   11230    15840    15914 1
   11231    12291    13341 1
   11232    10704    11419 1
   11233     5418     5859 1
   11234    16467    17200 1
   11235     6538     6948 1
   11236     6293     7060 1
   11237    12562    12996 1
   11238    10059    10795 1
   11239     3176     2140 1
   11240    14541    14988 1
   11241     8408    10015 1
   11242    12121    12657 1
   11243     4243     4351 1
   11244    15895    16919 1
   11245    12546    13314 1
   11246    13887    13960 1
   11247     8305     9810 1
   11248    15714    16743 1
   11249     4102     4368 1
   11250     1452      349 1
   11251     1209     1703 1
   11252    14173    15133 1
   11253     7108     8559 1
   11254    13032    13062 1
   11255    15801    16785 1
   11256    16377    17204 1
   11257    14209    14938 1
   11258    11223    11701 1
   11259     3372     2035 1
   11260     1117     1156 1
   11261    15673    16364 1
   11262     5744     7058 1
   11263     6068     6101 1
   11264     7626     9112 1
   11265    16807    16810 1
   11266      542     1498 1
   11267     5536     6409 1
   11268    11886    12905 1
   11269     5536     6923 1
   11270     3511      831 1
   11271     4578     4957 1
   11272     6889     6955 1
   11273     7373     7687 1
   11274     7826     8093 1
   11275    12486    13419 1
   11276    10152    11780 1
   11277    10760    11719 1
   11278    10521    10594 1
   11279    10148    10373 1
   11280     5858     6015 1
   11281     5680     5739 1
   11282    13193    13437 1
   11283    16597    17102 1
   11284     8253    10023 1
   11285     6056     6207 1
   11286    10342    11613 1
   11287    14068    14256 1
   11288     4131     4853 1
   11289    13975    14975 1
   11290    14379    14775 1
   11291     7310     7836 1
   11292     7592     8846 1
   11293      102     1126 1
   11294     7392     8251 1
   11295     8946     9102 1
   11296      971     1638 1
   11297    16218    16501 1
   11298    16025    16704 1
   11299     3430     2123 1
   11300     5925     6732 1
   11301     3997     4450 1
   11302     6001     7143 1
   11303     5173     5353 1
   11304    14463    15123 1
   11305    11969    13246 1
   11306     1457      420 1
   11307     8412     8679 1
   11308    10452    11118 1
   11309    12800    13493 1
   11310    15663    15717 1
   11311    10282    11177 1
   11312     1022      146 1
   11313    12994    13237 1
   11314    16383    16656 1
   11315      950      993 1
   11316     4597     5070 1
   11317    10858    10998 1
   11318    10502    11411 1
   11319       99     1091 1
   11320    12469    12748 1
   11321    10591    11684 1
   11322     9047     8250 1
   11323     8101     9980 1
   11324     2958     2583 1
   11325     7444     7590 1
   11326     8517     9980 1
   11327    10146    11773 1
   11328     8862     9135 1
   11329     7548     8409 1
   11330    10855    11259 1
   11331     6014     6118 1
   11332     2804     3328 1
   11333     8634     9353 1
   11334    12342    12431 1
   11335     7976     8583 1
   11336    13637    13716 1
   11337     3034     2327 1
   11338     8614     9766 1
   11339     2780     2829 1
   11340     8971     8391 1
   11341    14016    14131 1
   11342     9029     7527 1
   11343     7580     8262 1
   11344    14344    15281 1
   11345    14097    15355 1
   11346    14490    14739 1
   11347    12160    13116 1
   11348    10603    10878 1
   11349     9044     9196 1
   11350    13311    13513 1
   11351     5666     6359 1
   11352     9448     9493 1
   11353    14304    14546 1
   11354    13891    15214 1
   11355     8734     9928 1
   11356    15511    16128 1
   11357    12411    12854 1
   11358     8397     8741 1
   11359     6715     6960 1
   11360      829      185 1
   11361    16363    17158 1
   11362     3512     1861 1
   11363    14286    14392 1
   11364     5572     6753 1
   11365     3273     2456 1
   11366      618      161 1
   11367      997      605 1
   11368     1880     2563 1
   11369     5000     5322 1
   11370     5377     5593 1
   11371     3815     4514 1
   11372    13908    14638 1
   11373    11094    11394 1
   11374     3660     4378 1
   11375    13753    14132 1
   11376    13263    13533 1
   11377     4319     4710 1
   11378     7709     9712 1
   11379     1388     1460 1
   11380     1238     1456 1
   11381     8437     8765 1
   11382     8987     7381 1
   11383    15591    16909 1
   11384    11165    11253 1
   11385    13690    14035 1
   11386     3126     3325 1
   11387    10416    11718 1
   11388     1419     1437 1
   11389    16476    17197 1
   11390      730      132 1
   11391     2811     3144 1
   11392     1105      346 1
   11393     8171     8741 1
   11394    16182    16835 1
   11395     6650     6716 1
   11396    13322    13352 1
   11397     3052     2304 1
   11398     3026     3573 1
   11399     8279     9368 1
   11400     3961     4823 1
   11401    12768    13356 1
   11402     8124     9460 1
   11403    12325    12640 1
   11404    10891    11669 1
   11405     3912     5356 1
   11406    10091    11433 1
   11407     1889     2642 1
   11408      487     1664 1
   11409     5524     6436 1
   11410     3453     2145 1
   11411     3712     4873 1
   11412     9074     9706 1
   11413     3903     4413 1
   11414    15693    15915 1
   11415     8920     8086 1
   11416    13763    14461 1
   11417    14776    15354 1
   11418     1374      450 1
   11419     3608     3637 1
   11420    16865    17139 1
   11421     2290     2059 1
   11422    14155    14501 1
   11423    13111    13215 1
   11424    15985    16460 1
   11425     3197     2316 1
   11426     5971     5973 1
   11427     3441     1992 1
   11428    10450    11774 1
   11429    14488    15389 1
   11430    12277    13390 1
   11431     7706     7964 1
   11432     5484     5580 1
   11433       69      857 1
   11434      558    12818 1
   11435     5671     6134 1
   11436     2936     3203 1
   11437    12223    13544 1
   11438    13258    13461 1
   11439     2232     2376 1
   11440     5534     6046 1
   11441    10454    10471 1
   11442    16058    16888 1
   11443    14200    14746 1
   11444     1145     1432 1
   11445     3068     2146 1
   11446     5879     6555 1
   11447    12244    12673 1
   11448     3931     5292 1
   11449    15740    15825 1
   11450     3518     2639 1
   11451     5647     6408 1
   11452     1279      556 1
   11453    13167    13553 1
   11454     1701      314 1
   11455     4486     4581 1
   11456     3515     2585 1
   11457     1813     1858 1
   11458    13807    14595 1
   11459    12379    13437 1
   11460     4101     4346 1
   11461     5808     7109 1
   11462     4073     4165 1
   11463    14259    15413 1
   11464     6080     6473 1
   11465    12935    13137 1
   11466     7846     8684 1
   11467     9637     9715 1
   11468     6074     6722 1
   11469     8158     9268 1
   11470     8183     9682 1
   11471     7534     9406 1
   11472     7683     9984 1
   11473     4456    17064 1
   11474     1035     1762 1
   11475    12689    12769 1
   11476     7295     7673 1
   11477    11251    17043 1
   11478     9187     9321 1
   11479    10889    11656 1
   11480    15472    15558 1
   11481     8939     8640 1
   11482    15823    17158 1
   11483    12841    13480 1
   11484      989     1741 1
   11485     1580     1347 1
   11486    10869    11691 1
   11487     5440     5875 1
   11488    15769    16098 1
   11489    10716    10918 1
   11490    12055    12973 1
   11491    14812    14813 1
   11492    13749    14206 1
   11493     5500     6514 1
   11494    15481    16394 1
   11495     7572     8033 1
   11496     5547     5993 1
   11497     7392     9402 1
   11498    12059    12176 1
   11499     2930     2410 1
   11500     6155     6263 1
   11501     1261      140 1
   11502     7511     9528 1
   11503     5613     5632 1
   11504     5813     6895 1
   11505     9660     9787 1
   11506    16505    16705 1
   11507     3444     2521 1
   11508    12643    13512 1
   11509     8515     9334 1
   11510    10457    10905 1
   11511     8036     9333 1
   11512     8390     8776 1
   11513     1137      581 1
   11514     1028      554 1
   11515     9736    10002 1
   11516    16252    16902 1
   11517    14536    14744 1
   11518    13655    15260 1
   11519    15089    17161 1
   11520     7888     9653 1
   11521    14557    15345 1
   11522      956     1713 1
   11523    12883    13287 1
   11524    11245    11566 1
   11525    10298    10690 1
   11526     4485     5311 1
   11527    14100    14926 1
   11528     7858     8311 1
   11529    13325    13509 1
   11530    13754    14822 1
   11531    16644    17139 1
   11532    13846    14141 1
   11533     2974     2078 1
   11534      931     1008 1
   11535     2812     2016 1
   11536    16611    16763 1
   11537     8320     8635 1
   11538      870      467 1
   11539    15896    16300 1
   11540     7702     8717 1
   11541    16027    17214 1
   11542    11984    13265 1
   11543     2896     2518 1
   11544    14660    15160 1
   11545     6063     6836 1
   11546    10176    10605 1
   11547    12267    13181 1
   11548     7675     8236 1
   11549     1998     1900 1
   11550     6382     6455 1
   11551     5661     6456 1
   11552     8410     9903 1
   11553     2951     3011 1
   11554     5757     6424 1
   11555    14658    15028 1
   11556      733      758 1
   11557     3319     3449 1
   11558    10398    11785 1
   11559     6705     6905 1
   11560     5453     5679 1
   11561    10411    10551 1
   11562     6817     9944 1
   11563    12529    13354 1
   11564     2065     2735 1
   11565    12743    13309 1
   11566     8868     8878 1
   11567    15725    17150 1
   11568    12112    13573 1
   11569    15595    16679 1
   11570    12571    13475 1
   11571     5415     6764 1
   11572    15866    16992 1
   11573     5732     6014 1
   11574       63      855 1
   11575     1125      165 1
   11576     7823     8775 1
   11577       49      500 1
   11578     1093     5270 1
   11579     1807     1923 1
   11580    11080    11167 1
   11581     8999     9856 1
   11582     3654     4994 1
   11583    10734    10768 1
   11584    14047    14568 1
   11585    14308    16126 1
   11586    16284    16387 1
   11587    14199    14868 1
   11588     7962     7968 1
   11589     6404     6809 1
   11590     7802     8124 1
   11591     8341     8512 1
   11592    10349    11634 1
   11593     7244     7432 1
   11594     1216     1666 1
   11595     3691     5003 1
   11596    10572    11166 1
   11597    11918    12359 1
   11598    13749    15305 1
   11599    10887    11692 1
   11600     4023     4873 1
   11601       80      697 1
   11602      585     6051 1
   11603    14408    15084 1
   11604    12823    13029 1
   11605    12221    12915 1
   11606     4111     5202 1
   11607     4799     4482 1
   11608    16027    16716 1
   11609    16543    17208 1
   11610     7804     9529 1
   11611    10203    11545 1
   11612     2211     2339 1
   11613     6034     6336 1
   11614    12613    13399 1
   11615      927      812 1
   11616     6246     6442 1
   11617    15850    17055 1
   11618     1672      131 1
   11619     1048      175 1
   11620      624      261 1
   11621     2913     3543 1
   11622     4619     5093 1
   11623     8777     9615 1
   11624     2022    14721 1
   11625     4141     4997 1
   11626     5806     6899 1
   11627     6484     6613 1
   11628     7364     8255 1
   11629     2230     2262 1
   11630    14323    14421 1
   11631    16323    16777 1
   11632     2374     2484 1
   11633     4740     4797 1
   11634    10912    11784 1
   11635     9028     8702 1
   11636     7995     8577 1
   11637     6357     6776 1
   11638     1075      340 1
   11639     1061      397 1
   11640     3697     3792 1
   11641    16671    16988 1
   11642    10154    11235 1
   11643    13122    13299 1
   11644     4334     4403 1
   11645    15904    16240 1
   11646    16531    16775 1
   11647     5362     5948 1
   11648    10683    11099 1
   11649      523     1551 1
   11650      550      121 1
   11651     4590     5304 1
   11652     5483     6907 1
   11653     7640     9119 1
   11654    16423    17088 1
   11655     3154     1856 1
   11656     2333     2349 1
   11657    12567    12839 1
   11658     1128      287 1
   11659     6295     6726 1
   11660     4136     4563 1
   11661    10413    10775 1
   11662     3750     4140 1
   11663     3159     2235 1
   11664    15477    16901 1
   11665     2953     1812 1
   11666    10685    10862 1
   11667    14335    14479 1
   11668     6376    11475 1
   11669     5545     6982 1
   11670    12457    13097 1
   11671    15588    16048 1
   11672     6822     7144 1
   11673     7233     9340 1
   11674     3178     2039 1
   11675     3327     3534 1
   11676    11843    12065 1
   11677    10939    11284 1
   11678     3357     2173 1
   11679     2508     2664 1
   11680    14755    14794 1
   11681    16108    16647 1
   11682     8630     8854 1
   11683    11172    11572 1
   11684     1230     1314 1
   11685    16225    16914 1
   11686    15982    16551 1
   11687     3227     2265 1
   11688    11934    13564 1
   11689     1007      798 1
   11690     7092    10885 1
   11691     7510     9142 1
   11692      775     1693 1
   11693     3701     4631 1
   11694    12343    12563 1
   11695     2131     2394 1
   11696     1368     1376 1
   11697    15678    16098 1
   11698      730      596 1
   11699    12142    13277 1
   11700      504      275 1
   11701     8162     8398 1
   11702     2426     2437 1
   11703    16112    16515 1
   11704     2769     1832 1
   11705     2873     2213 1
   11706     4770    11821 1
   11707       16     1564 1
   11708     9217    11131 1
   11709     3634     4069 1
   11710    16205    16622 1
   11711    10846    11288 1
   11712    11077    11596 1
   11713     6016     6412 1
   11714    15523    15963 1
   11715    12986    13217 1
   11716    15878    16931 1
   11717    15234    17178 1
   11718      672      405 1
   11719      393      460 1
   11720     7210     9413 1
   11721     3030     2391 1
   11722      698    13052 1
   11723       56     1400 1
   11724     3844     4367 1
   11725     8966     8135 1
   11726     3325     2443 1
   11727    15043    15091 1
   11728     9049     9880 1
   11729     5442     6769 1
   11730     9589     9925 1
   11731     8833     9544 1
   11732     3334     3510 1
   11733     3590     4363 1
   11734      384      208 1
   11735    15767    16811 1
   11736    14086    14720 1
   11737     5363     5933 1
   11738     6163    12495 1
   11739    10134    11473 1
   11740    15428    16137 1
   11741     2769     3108 1
   11742    15809    16927 1
   11743    15958    16228 1
   11744     1672      210 1
   11745     2874     1884 1
   11746    11141    11672 1
   11747     3794     4871 1
   11748    12407    13266 1
   11749     7805     9188 1
   11750     8556     9550 1
   11751    11847    12413 1
   11752     2342    14112 1
   11753    15996    16014 1
   11754     5794     6911 1
   11755    10357    11371 1
   11756    12538    13151 1
   11757      100     1137 1
   11758     1701      380 1
   11759     7249     9129 1
   11760    10105    11520 1
   11761     7759     9226 1
   11762      847     4643 1
   11763    11852    12152 1
   11764     8593     9803 1
   11765     3583     3948 1
   11766     7556     9231 1
   11767     1006      386 1
   11768    12336    12634 1
   11769     4141     5037 1
   11770    15536    15737 1
   11771    15874    16824 1
   11772     5607     6292 1
   11773     2190     2677 1
   11774     9148     9631 1
   11775    10459    10852 1
   11776     2169     1992 1
   11777    11315    11529 1
   11778    11993    13572 1
   11779     8563     8751 1
   11780     6861     6933 1
   11781     8898     9610 1
   11782    14200    14212 1
   11783     6471     6561 1
   11784     4406     4671 1
   11785    16562    16675 1
   11786    14290    15299 1
   11787     3725     4149 1
   11788    12494    13127 1
   11789    15526    16336 1
   11790     7723     8203 1
   11791     6787     8830 1
   11792    13478    13546 1
   11793     3791     5071 1
   11794     9019     8536 1
   11795    10060    10627 1
   11796     6059     6632 1
   11797     4141     4158 1
   11798    11220    11824 1
   11799     9380     9611 1
   11800    14418    15145 1
   11801     8396     8731 1
   11802     5648     6671 1
   11803     7795     8823 1
   11804    13079    13464 1
   11805     4251     5004 1
   11806     8567     9560 1
   11807       26      958 1
   11808     4175     4356 1
   11809     5758     6422 1
   11810     4482     5278 1
   11811    15990    16675 1
   11812     7706     8525 1
   11813     8925     9233 1
   11814     1043      321 1
   11815     2758     8089 1
   11816      692     1352 1
   11817     2280     1928 1
   11818     3228     2705 1
   11819     7755     9131 1
   11820    10749    11164 1
   11821    12117    13049 1
   11822     5626     6216 1
   11823     8247     9931 1
   11824    11292    11554 1
   11825     7460     8241 1
   11826     7311     8384 1
   11827    12250    12675 1
   11828    12239    12904 1
   11829     8596     9713 1
   11830    14316    14872 1
   11831     6052     6445 1
   11832     1259      187 1
   11833     9064     8854 1
   11834    10304    11114 1
   11835    11925    13105 1
   11836    15620    15942 1
   11837     5858    10455 1
   11838    10209    11402 1
   11839     8875     7676 1
   11840     3626     4030 1
   11841     3735     4718 1
   11842    10168    11809 1
   11843     6107     6797 1
   11844     2814     2472 1
   11845     2887     2512 1
   11846    14021    15228 1
   11847     8330     9388 1
   11848    16257    17104 1
   11849     1129     1504 1
   11850     4949     5306 1
   11851    14959    15323 1
   11852     2866     3429 1
   11853    12063    13623 1
   11854     3983     4541 1
   11855     7310     7532 1
   11856     8266     9431 1
   11857     7215     8158 1
   11858    12678    12746 1
   11859     4253     4655 1
   11860     4795     4522 1
   11861     7418     9353 1
   11862     3376     2416 1
   11863     9376     9442 1
   11864     4533     4995 1
   11865     3318     2098 1
   11866     3585     4275 1
   11867     5429     6733 1
   11868     7547     8042 1
   11869    11991    12347 1
   11870     7332     9931 1
   11871     6084     6358 1
   11872     3738     4871 1
   11873     1764      185 1
   11874     3542     1839 1
   11875    10305    11638 1
   11876     4169     4359 1
   11877     4344     4815 1
   11878     3848     4078 1
   11879     8964     8428 1
   11880    15745    15752 1
   11881     7255     8825 1
   11882      718      359 1
   11883     3413     3434 1
   11884    10176    11238 1
   11885    14434    14983 1
   11886     5546     6187 1
   11887     9001     8079 1
   11888    14350    15108 1
   11889     4009     4198 1
   11890     8059     8458 1
   11891    13822    14244 1
   11892     5924     6277 1
   11893    10759    11524 1
   11894    10296    11644 1
   11895    11204    11536 1
   11896    13888    14981 1
   11897       41     4536 1
   11898     9190     9881 1
   11899      853     1752 1
   11900     6521     6848 1
   11901     8953     7530 1
   11902    14251    14740 1
   11903     8886     9924 1
   11904    10831    11053 1
   11905    14365    14512 1
   11906    12706    13278 1
   11907     9248     9408 1
   11908    11443    11820 1
   11909     5492     6256 1
   11910     4060     4860 1
   11911     7682     8263 1
   11912     1915     2606 1
   11913     8660     9364 1
   11914    10693    11791 1
   11915     2780     2556 1
   11916    16022    16207 1
   11917    12405    13210 1
   11918     2378     2569 1
   11919    16051    16535 1
   11920    14095    15364 1
   11921    11042    11119 1
   11922     3695     4125 1
   11923     5474     7124 1
   11924    15479    17171 1
   11925     7995     9605 1
   11926     4679     4471 1
   11927     5935     6329 1
   11928    15684    15757 1
   11929     3156     3159 1
   11930     2899     2298 1
   11931    16437    16905 1
   11932     6447     6931 1
   11933     4442     4918 1
   11934    16194    16485 1
   11935     5555     7023 1
   11936    12505    12765 1
   11937    15029    15416 1
   11938    12638    12744 1
   11939    16752    16934 1
   11940    13998    15348 1
   11941     7393     9758 1
   11942    14396    15348 1
   11943    11852    12220 1
   11944    16281    16833 1
   11945    16767    16789 1
   11946     7092    11505 1
   11947    13977    14850 1
   11948    14419    15403 1
   11949     8529     9989 1
   11950     8922     9085 1
   11951    12425    12641 1
   11952     4095     4897 1
   11953     8891     8419 1
   11954    13847    14875 1
   11955    12064    13203 1
   11956    16054    17041 1
   11957     3088     3162 1
   11958    12164    13285 1
   11959     4897     5139 1
   11960     1207      307 1
   11961     1800    13786 1
   11962     3679     3878 1
   11963     1023     1629 1
   11964    12041    13190 1
   11965    15986    16756 1
   11966    12678    13460 1
   11967     4016     5106 1
   11968    10228    11081 1
   11969    10792    11675 1
   11970     3182     1815 1
   11971    10905    11523 1
   11972    10320    10622 1
   11973    10371    10379 1
   11974    10305    11054 1
   11975    15558    16328 1
   11976     3800     4099 1
   11977    13992    15283 1
   11978    13933    14842 1
   11979    12860    13156 1
   11980    12419    13141 1
   11981     4310     4861 1
   11982     8114     9501 1
   11983     5426    12958 1
   11984     3683     4578 1
   11985       92      107 1
   11986     7466     9364 1
   11987    10166    10611 1
   11988    13860    14646 1
   11989     3894     4614 1
   11990      926      662 1
   11991      618     1554 1
   11992     8337     9391 1
   11993    10293    11692 1
   11994    13869    14235 1
   11995     6519     6616 1
   11996     6162     6304 1
   11997     5651     6856 1
   11998    15894    15983 1
   11999    15892    16708 1
   12000     6559    13450 1
   12001     8553     9112 1
   12002     9044     8186 1
   12003     5609     6016 1
   12004    12326    12383 1
   12005     3833     4975 1
   12006     1042     1564 1
   12007    11912    13009 1
   12008     3040     4648 1
   12009    14929    15045 1
   12010    12083    12794 1
   12011    15847    16778 1
   12012     2265     1946 1
   12013     8347     9539 1
   12014     6383     6995 1
   12015      845     2363 1
   12016     5386     5666 1
   12017     6318     6484 1
   12018    15554    16491 1
   12019    11167    11586 1
   12020    10386    10484 1
   12021    11033    11058 1
   12022      768     1785 1
   12023    13230    13303 1
   12024     7160     8110 1
   12025     4073     5100 1
   12026     4425     5037 1
   12027    10223    10685 1
   12028     7179     7253 1
   12029     5390     7050 1
   12030     4694     4433 1
   12031     2057     2656 1
   12032      788     1210 1
   12033      504     1730 1
   12034    12468    13246 1
   12035      999      774 1
   12036     5405     6522 1
   12037    13881    15222 1
   12038     3264     3450 1
   12039    14292    14500 1
   12040    13200    13463 1
   12041     8230     9305 1
   12042    12369    12575 1
   12043    10903    10982 1
   12044     8602     8831 1
   12045    10279    10421 1
   12046    10492    10995 1
   12047     1126     1496 1
   12048    13974    15369 1
   12049    16251    16297 1
   12050    12437    12574 1
   12051     4458     5097 1
   12052     1101     1696 1
   12053    16000    16446 1
   12054    14357    14871 1
   12055    14365    14765 1
   12056     1680      106 1
   12057    15034    15318 1
   12058     4845     5212 1
   12059       10     1364 1
   12060     8112     9884 1
   12061     8291     9646 1
   12062     2034     2715 1
   12063    11963    12298 1
   12064    15541    16463 1
   12065    15913    15974 1
   12066    12124    12650 1
   12067    14407    14634 1
   12068     8879     9231 1
   12069     4571     5130 1
   12070    12890    13143 1
   12071     9610     9686 1
   12072    13073    13446 1
   12073     2832     3099 1
   12074    16510    17164 1
   12075    12037    12993 1
   12076     6714     6981 1
   12077     1174     1289 1
   12078     3075     3193 1
   12079    14051    14466 1
   12080     7372     9223 1
   12081    13765    15057 1
   12082    10867    10935 1
   12083    14077    14161 1
   12084    10702    11467 1
   12085     7972     8806 1
   12086    11135    11393 1
   12087     4049     4363 1
   12088     7953     9361 1
   12089     8652     9788 1
   12090     3786     4547 1
   12091     8753    10010 1
   12092     4291     4727 1
   12093     8364     9568 1
   12094    10790    10815 1
   12095     4838     5169 1
   12096     2259     2025 1
   12097    12752    13067 1
   12098     6060     6580 1
   12099    11192    11293 1
   12100     8213     9543 1
   12101    12608    13293 1
   12102    16770    17055 1
   12103    14053    14876 1
   12104      896      132 1
   12105    13364    13395 1
   12106    16024    16219 1
   12107     9176     9272 1
   12108     5797     6903 1
   12109    10104    10520 1
   12110     3860     5141 1
   12111    10479    10510 1
   12112     1065      123 1
   12113     2834     1940 1
   12114     9275     9835 1
   12115     7938     9971 1
   12116      678     1520 1
   12117      579     4416 1
   12118     9014     9280 1
   12119     7228     8765 1
   12120     1831     1916 1
   12121     5796     6301 1
   12122     4143     4803 1
   12123    10281    10664 1
   12124     3240     2500 1
   12125     2938     2501 1
   12126     8919     7541 1
   12127    14114    14597 1
   12128     3121     2130 1
   12129    12994    13260 1
   12130     9064     7914 1
   12131     2816     1841 1
   12132    14325    14721 1
   12133     5527     6675 1
   12134     7949     8531 1
   12135    13841    14694 1
   12136    10880    11719 1
   12137    12969    13139 1
   12138     7866     8712 1
   12139    10191    10716 1
   12140     8950     7817 1
   12141    15600    16757 1
   12142     4148     4458 1
   12143     7375    14324 1
   12144     3719     4664 1
   12145     7860     8682 1
   12146      555      425 1
   12147     6057     6247 1
   12148    13358    13615 1
   12149     5681     5743 1
   12150     5507     6453 1
   12151     9299     9433 1
   12152     2985     1901 1
   12153    13720    15324 1
   12154     5686     6177 1
   12155    10575    11374 1
   12156     4565     5347 1
   12157    15816    15953 1
   12158    10006    10021 1
   12159     3303     3439 1
   12160     5910     7018 1
   12161      628      356 1
   12162      846      428 1
   12163    13994    14914 1
   12164    13643    14884 1
   12165     4316      822 1
   12166      923     1066 1
   12167    12085    13434 1
   12168      733     1522 1
   12169    12450    13010 1
   12170    15545    16741 1
   12171     7644     8197 1
   12172     7827     8761 1
   12173     8503    10014 1
   12174    10093    11355 1
   12175    12254    12326 1
   12176     7172     7252 1
   12177     7757     9913 1
   12178     5599     6503 1
   12179     6117     6217 1
   12180     9041     7445 1
   12181    10769    10872 1
   12182     1043      142 1
   12183     5632     6024 1
   12184    14661    15138 1
   12185     5553     6370 1
   12186     5747     5862 1
   12187     9009     9644 1
   12188     5888     7085 1
   12189     3015     2006 1
   12190     7865     9945 1
   12191    12823    13040 1
   12192     6249     6965 1
   12193    11207    11734 1
   12194     3422     2661 1
   12195     7691     8390 1
   12196    16559    17197 1
   12197     5647     7074 1
   12198    13720    15066 1
   12199     5581     7146 1
   12200     3888     4580 1
   12201     3427     3513 1
   12202    15338    15390 1
   12203    15791    16500 1
   12204      740      809 1
   12205     4150     4308 1
   12206     8414     9893 1
   12207    12833    13258 1
   12208    11930    13455 1
   12209     3306     2516 1
   12210      941      364 1
   12211     5376     6232 1
   12212    10676    11766 1
   12213     6672     6952 1
   12214     5877     6717 1
   12215    14758    14885 1
   12216     2824     3348 1
   12217     2274     2621 1
   12218     4145     4661 1
   12219     5827     6671 1
   12220     5957     6781 1
   12221      739      309 1
   12222     5387     6761 1
   12223     6354     6365 1
   12224     4092     4546 1
   12225     5809     6028 1
   12226    16649    17211 1
   12227    11898    12874 1
   12228    14047    15231 1
   12229     7578     8444 1
   12230     5658     7080 1
   12231     4123     4395 1
   12232    11012    11179 1
   12233    14025    15359 1
   12234     2911     3529 1
   12235     7167    10048 1
   12236     1237      402 1
   12237     9453    10006 1
   12238     1039     1342 1
   12239     9658     9686 1
   12240     3954     4142 1
   12241       26     1169 1
   12242    10352    11402 1
   12243    10598    11302 1
   12244    12786    13464 1
   12245      864      493 1
   12246     5389     5786 1
   12247     6271     7073 1
   12248     5368     6728 1
   12249     7168     9202 1
   12250    12618    13290 1
   12251    15950    16543 1
   12252     3269     2621 1
   12253     7341     7476 1
   12254      490      518 1
   12255     2865     2470 1
   12256     8840     9667 1
   12257    12292    13429 1
   12258     3098     2592 1
   12259     3364     2045 1
   12260     7357     9484 1
   12261     5986     6819 1
   12262     3336     2139 1
   12263     7567     8151 1
   12264    16048    16425 1
   12265    11044    11359 1
   12266    12661    13017 1
   12267    16495    16499 1
   12268     1243      294 1
   12269     6321     6876 1
   12270    13735    13846 1
   12271     8131     9303 1
   12272     1607     1648 1
   12273     3617     4636 1
   12274    16094    16356 1
   12275    13129    13194 1
   12276     2861     2259 1
   12277    13864    14464 1
   12278    10222    11297 1
   12279    11892    12343 1
   12280     5634     6234 1
   12281      833     5869 1
   12282     1207     1268 1
   12283    12069    13049 1
   12284    14465    14547 1
   12285     7311     9619 1
   12286     4284     4439 1
   12287     5529     7861 1
   12288    10236    11531 1
   12289       29     1397 1
   12290    10467    11024 1
   12291        6       84 1
   12292      796      403 1
   12293     4394     5289 1
   12294       23     1490 1
   12295    14626    14945 1
   12296    13305    13563 1
   12297    15437    17220 1
   12298     2922     3025 1
   12299     2960     3497 1
   12300    14986    15215 1
   12301     8192     8636 1
   12302    15808    17137 1
   12303    12745    13192 1
   12304     8857     8832 1
   12305     4117     5069 1
   12306     4637     4641 1
   12307    12429    13529 1
   12308     4474     5013 1
   12309    14897    15018 1
   12310    12724    14299 1
   12311    16398    17202 1
   12312     2891     1970 1
   12313    14675    14682 1
   12314     4149     5255 1
   12315      576     1433 1
   12316     2999     3560 1
   12317    15728    16149 1
   12318    16710    16996 1
   12319     4278     5131 1
   12320       72     1150 1
   12321     3269     2251 1
   12322     5485     5853 1
   12323     3190     1811 1
   12324    10862    11376 1
   12325      824      548 1
   12326     5446     5489 1
   12327     3815     5162 1
   12328     8195     9414 1
   12329     5790     6639 1
   12330     7272     9741 1
   12331     5631     6465 1
   12332    14589    14806 1
   12333    14403    14942 1
   12334    12011    13183 1
   12335    15832    16228 1
   12336     1790     2422 1
   12337     2831     3467 1
   12338     6079     6516 1
   12339     3051     2412 1
   12340     3693     4019 1
   12341    14849    15153 1
   12342    10554    11429 1
   12343     7297     7310 1
   12344     7766     8218 1
   12345    14293    15119 1
   12346     3122     1998 1
   12347     2761     3293 1
   12348     4879     5186 1
   12349    10762    11612 1
   12350    10245    10798 1
   12351    12796    13361 1
   12352    15607    16603 1
   12353    16122    16742 1
   12354    14395    14664 1
   12355     8954     8591 1
   12356     9454     9791 1
   12357     6880     6956 1
   12358    11343    11460 1
   12359     4589     5173 1
   12360     1069      786 1
   12361     8931     9252 1
   12362     6473     6898 1
   12363    16933    17039 1
   12364     9804     9898 1
   12365    12034    13421 1
   12366     2892     2477 1
   12367    11915    12829 1
   12368     7265     8416 1
   12369     6506     6739 1
   12370    15243    15284 1
   12371    12555    13488 1
   12372     6385     6867 1
   12373     4006     5118 1
   12374    14669    14858 1
   12375     2239     2379 1
   12376     5760     6978 1
   12377    15608    17063 1
   12378    10394    11840 1
   12379    15449    16275 1
   12380    10606    11174 1
   12381     7244     7296 1
   12382    12774    13536 1
   12383     7362     8270 1
   12384     2883     2668 1
   12385    16499    16908 1
   12386    10078    10257 1
   12387    14026    14535 1
   12388    12457    13181 1
   12389     5661     6940 1
   12390    10331    10856 1
   12391     5813     6662 1
   12392     1262     1476 1
   12393     4647     5159 1
   12394     4426     4447 1
   12395     9829     9878 1
   12396     6373     6547 1
   12397    10945    11393 1
   12398     2803     3175 1
   12399     6387     6863 1
   12400     9113     9602 1
   12401     9004     8008 1
   12402      693      619 1
   12403     1808     2624 1
   12404      749     1399 1
   12405    14049    14981 1
   12406     6780     6984 1
   12407    13692    14951 1
   12408     8722     9635 1
   12409    15795    15833 1
   12410     3617     5107 1
   12411     3026     2324 1
   12412     1307      287 1
   12413     3846     4923 1
   12414     5883     6686 1
   12415     4821     5232 1
   12416    12191    13053 1
   12417     3785     4578 1
   12418    10827    11608 1
   12419    14042    14607 1
   12420    16696    16936 1
   12421      572      381 1
   12422    10641    11339 1
   12423     5962     6654 1
   12424     6793     7069 1
   12425     1994     2420 1
   12426     8639     9497 1
   12427     3001     2621 1
   12428    11270    11717 1
   12429     5371     7086 1
   12430     6783     6802 1
   12431    14886    15023 1
   12432      700     1540 1
   12433     5807     6221 1
   12434    10489    11017 1
   12435    12211    13554 1
   12436     8265     8788 1
   12437    14782    15013 1
   12438     7747     9926 1
   12439     1391     1766 1
   12440     1409      480 1
   12441      881     1635 1
   12442     4212     5249 1
   12443    13930    14988 1
   12444    15774    16537 1
   12445     2933     1971 1
   12446    12504    15378 1
   12447     3935     4640 1
   12448     5886     6219 1
   12449     8728     9907 1
   12450       54     1034 1
   12451    13720    14000 1
   12452     4473     4567 1
   12453     6699     6903 1
   12454     8175     8554 1
   12455     7730     8461 1
   12456    12228    12252 1
   12457     7871     8467 1
   12458     3046     1925 1
   12459     1176     1712 1
   12460    10543    11715 1
   12461     1430     1457 1
   12462     8719     9220 1
   12463      858     1491 1
   12464    10850    11512 1
   12465    12139    13546 1
   12466     7897     9729 1
   12467     3327     2648 1
   12468    13331    13526 1
   12469       60      179 1
   12470    16857    17127 1
   12471    11136    11604 1
   12472    16277    16991 1
   12473    12439    13259 1
   12474      498     1377 1
   12475     3845     4383 1
   12476     6619     6634 1
   12477     5517     6873 1
   12478     8823     9250 1
   12479    13883    14313 1
   12480    15154    15417 1
   12481     7591     8732 1
   12482    15726    16199 1
   12483    10253    10978 1
   12484    15570    16311 1
   12485    16594    16623 1
   12486    15666    17183 1
   12487     4159    10747 1
   12488     2805     2841 1
   12489     7987     9256 1
   12490    15836    16266 1
   12491     8305     9459 1
   12492    15675    15899 1
   12493    10964    11250 1
   12494     7281     9537 1
   12495     4391     4437 1
   12496     2977     3089 1
   12497     7479     7808 1
   12498     7809     8638 1
   12499     7232     9557 1
   12500    10446    11091 1
   12501     1942     1949 1
   12502    12526    13075 1
   12503    11016    11474 1
   12504     6631     6968 1
   12505     1721     1737 1
   12506     5389     5563 1
   12507     1953     2069 1
   12508     3402     2126 1
   12509    11874    12886 1
   12510    10190    10492 1
   12511     6128     6648 1
   12512     7625     8367 1
   12513    15620    16472 1
   12514     5561     6774 1
   12515      960     1650 1
   12516     1178      169 1
   12517     6365     6836 1
   12518    12203    12565 1
   12519     3002     3067 1
   12520     5615     5793 1
   12521    16965    17087 1
   12522    15773    16772 1
   12523     4744     4958 1
   12524       91     1721 1
   12525    14404    15195 1
   12526    12987    13517 1
   12527    16775    17221 1
   12528    16331    16539 1
   12529     1197     6973 1
   12530     5492     7038 1
   12531     5607     6750 1
   12532     3854     4380 1
   12533     2921     1885 1
   12534     4335     5030 1
   12535    10355    11512 1
   12536    14013    15328 1
   12537    13764    15308 1
   12538    12061    13239 1
   12539    12686    16503 1
   12540    10756    11271 1
   12541    12169    12321 1
   12542     6087     6998 1
   12543     7565     9451 1
   12544     8014     9504 1
   12545     2980     2084 1
   12546     5138     5356 1
   12547    15722    17017 1
   12548     2883     1960 1
   12549     4220     4988 1
   12550     4437     5008 1
   12551     2886     3395 1
   12552      956     1518 1
   12553     8892     7519 1
   12554    15628    16698 1
   12555     1366     5172 1
   12556     7766     9911 1
   12557     1611     2450 1
   12558     1281     1589 1
   12559    16490    16938 1
   12560    15654    16872 1
   12561    14603    15402 1
   12562    12843    13202 1
   12563    11249    11258 1
   12564    15000    15337 1
   12565    12570    13246 1
   12566     3612     4876 1
   12567     8849     9242 1
   12568    14567    15181 1
   12569     2975     3465 1
   12570    15917    16524 1
   12571     8071     8572 1
   12572     1669      188 1
   12573     3499     2082 1
   12574     7753     9139 1
   12575    12830    13584 1
   12576     6764     6792 1
   12577    16461    16712 1
   12578     4631     5339 1
   12579     7675     7768 1
   12580    13806    15195 1
   12581    15576    16077 1
   12582    14008    14711 1
   12583     4706     5025 1
   12584    16132    16652 1
   12585    13366    13418 1
   12586     3969     4581 1
   12587     3142     1913 1
   12588     4788     4410 1
   12589    12820    12844 1
   12590    10825    11840 1
   12591     7302     8527 1
   12592     2795     2186 1
   12593    11357    11668 1
   12594     2035     2449 1
   12595     1646     4829 1
   12596    10434    11813 1
   12597    10956    11669 1
   12598     3119     3406 1
   12599    12290    12433 1
   12600    11141    11711 1
   12601     7680     9966 1
   12602     4498     5084 1
   12603      651    12646 1
   12604    10062    11116 1
   12605     7490     8772 1
   12606    12174    12443 1
   12607     8902     9801 1
   12608    10154    11146 1
   12609     1210     1403 1
   12610      826      130 1
   12611     1040      805 1
   12612    12588    12794 1
   12613     5650     6904 1
   12614     9370     9827 1
   12615     8521     9654 1
   12616     7666     7863 1
   12617     8963     7383 1
   12618    15856    17048 1
   12619    14564    15148 1
   12620     4994     5261 1
   12621     4363     4401 1
   12622    16659    17214 1
   12623    15510    16514 1
   12624    12052    12227 1
   12625     1916     1936 1
   12626     2260     2590 1
   12627     1548      433 1
   12628    16964    17092 1
   12629    12347    13104 1
   12630    10129    10570 1
   12631    15588    15955 1
   12632     2899     3438 1
   12633    10409    11443 1
   12634    14486    14548 1
   12635     2870     2650 1
   12636    10266    10930 1
   12637     1550     1486 1
   12638    12206    13373 1
   12639     4500     4577 1
   12640     2040    14302 1
   12641     3012     2195 1
   12642      599      434 1
   12643    10618    10709 1
   12644     4832     4954 1
   12645    16183    16591 1
   12646     3903     4258 1
   12647     4381     4520 1
   12648    15558    17108 1
   12649      838     1617 1
   12650    10510    11382 1
   12651    13683    14074 1
   12652    10106    11386 1
   12653    13832    15372 1
   12654    16195    17147 1
   12655     5994     6040 1
   12656    10844    10959 1
   12657     1922     2443 1
   12658    12775    12982 1
   12659    10162    11255 1
   12660    10767    10875 1
   12661    10160    10359 1
   12662     1848     2397 1
   12663    16318    16959 1
   12664    13641    13940 1
   12665    10222    10334 1
   12666     4527     4869 1
   12667    15454    16871 1
   12668     5537     5852 1
   12669     3590     3610 1
   12670    15693    15764 1
   12671     5376     5518 1
   12672    11965    12048 1
   12673     9088    10041 1
   12674    16225    16329 1
   12675    12013    12472 1
   12676    16259    16921 1
   12677    11910    13444 1
   12678     4221     4674 1
   12679      868      367 1
   12680    13304    13324 1
   12681    10179    11678 1
   12682     7612     9773 1
   12683     4208     5029 1
   12684     4621     4876 1
   12685     2046     2381 1
   12686     5880     6630 1
   12687     8529     8700 1
   12688    15775    16646 1
   12689       43     1536 1
   12690     1204      300 1
   12691    14002    14286 1
   12692    12930    12981 1
   12693     3144     2230 1
   12694    10275    11575 1
   12695     8779     9123 1
   12696     4802     5071 1
   12697     5380     5866 1
   12698    12019    13402 1
   12699     7324     9896 1
   12700     8815     9464 1
   12701      557     1410 1
   12702     2006     1788 1
   12703     7704     9785 1
   12704    12293    13216 1
   12705    15895    17163 1
   12706    10309    11067 1
   12707     4156     4710 1
   12708     2925     1887 1
   12709     8880     8803 1
   12710      531      269 1
   12711    16553    16692 1
   12712    10640    11008 1
   12713    13919    14766 1
   12714    10878    11801 1
   12715    10377    10654 1
   12716     4716     4992 1
   12717    11870    12196 1
   12718     1685      294 1
   12719    12195    13521 1
   12720    16343    17143 1
   12721    16042    16044 1
   12722     6480     6551 1
   12723     6328     7000 1
   12724    12094    12597 1
   12725     5692     5878 1
   12726     7643     8707 1
   12727    10307    10737 1
   12728    15790    17083 1
   12729     1229      568 1
   12730    14447    15405 1
   12731    13110    13445 1
   12732      541      568 1
   12733     6286     6763 1
   12734     6089     6465 1
   12735    12602    13496 1
   12736     5768     6866 1
   12737     8225     8398 1
   12738    12021    12406 1
   12739       44     1522 1
   12740     4833     4997 1
   12741    13817    14265 1
   12742     1644      328 1
   12743     5753     6262 1
   12744     9535     9747 1
   12745     3227     2105 1
   12746     1259     1424 1
   12747     7611     9963 1
   12748     3789     4083 1
   12749     3600     4528 1
   12750     8982     8648 1
   12751    15462    16264 1
   12752    11171    11704 1
   12753    14345    14452 1
   12754     1195      249 1
   12755    12314    13582 1
   12756     4062     4940 1
   12757     5845     6881 1
   12758    16624    16655 1
   12759     4260     4901 1
   12760    14575    14994 1
   12761      881      143 1
   12762    11059    11418 1
   12763     4393     4962 1
   12764     5389     6406 1
   12765     5034     5292 1
   12766     2332     2604 1
   12767     9242     9956 1
   12768    15476    15932 1
   12769    12138    13085 1
   12770    14940    15425 1
   12771     1013      255 1
   12772     1708      286 1
   12773    15714    17173 1
   12774     7996     8727 1
   12775    10172    11381 1
   12776     8027     9657 1
   12777    10058    10694 1
   12778       91      366 1
   12779    16633    16779 1
   12780     6165     6891 1
   12781      635      203 1
   12782    16414    16621 1
   12783     3057     3371 1
   12784     7511     8172 1
   12785     7517     9939 1
   12786      633    12512 1
   12787    12982    13047 1
   12788       67      395 1
   12789     4798     4896 1
   12790     9666     9986 1
   12791    16968    17099 1
   12792    12110    12198 1
   12793     9365     9785 1
   12794     7465     8501 1
   12795    12944    13450 1
   12796     3210     2313 1
   12797      636     1457 1
   12798     1515     1771 1
   12799    10107    11677 1
   12800     8969     9277 1
   12801    11855    12936 1
   12802     4146     4457 1
   12803     3135     3402 1
   12804     3911     4675 1
   12805     7528     7571 1
   12806    16390    16556 1
   12807    12981    13497 1
   12808     3964     4032 1
   12809     7871     9629 1
   12810     7279     8052 1
   12811     4282     4942 1
   12812     8321     9685 1
   12813     7208    14234 1
   12814    11331    11352 1
   12815     4631     4834 1
   12816     7244     9307 1
   12817    10341    11789 1
   12818     9032     7659 1
   12819    10125    11421 1
   12820     7110    11554 1
   12821     2420     2729 1
   12822     7395     7568 1
   12823    12591    13275 1
   12824     8458    13839 1
   12825    15804    16861 1
   12826    10300    11438 1
   12827    10078    11543 1
   12828     2928     3160 1
   12829     5454     6864 1
   12830    12288    12319 1
   12831    11264    11455 1
   12832     3884     5322 1
   12833     1071     2627 1
   12834    10370    11364 1
   12835    14360    15113 1
   12836    14004    14903 1
   12837     5997     7106 1
   12838    12380    12653 1
   12839     6865     7056 1
   12840     7234     7909 1
   12841      789     5570 1
   12842     8220     9075 1
   12843     4506     4936 1
   12844    10264    11723 1
   12845     5622     5982 1
   12846    10462    11598 1
   12847    16952    17089 1
   12848    13882    15277 1
   12849     6376    10762 1
   12850     2911     3083 1
   12851    13106    14847 1
   12852      690     1306 1
   12853    16187    16417 1
   12854    11458    11617 1
   12855     2875     3409 1
   12856    11097    11497 1
   12857     3770     4843 1
   12858     2825     1927 1
   12859     4842     5173 1
   12860     6798     6923 1
   12861      570     1382 1
   12862    12603    13598 1
   12863     5391     6228 1
   12864     7446     9328 1
   12865    14908    15011 1
   12866     8698     9495 1
   12867     7733     8773 1
   12868     7562     9354 1
   12869    15792    16710 1
   12870     5918     6469 1
   12871    10935    11680 1
   12872     6594     6969 1
   12873    12981    12989 1
   12874     3580     4528 1
   12875     7597     8733 1
   12876       77     1009 1
   12877    11914    12667 1
   12878     9062     9111 1
   12879    14672    15400 1
   12880    13870    14590 1
   12881    10154    10958 1
   12882    13844    13991 1
   12883    15793    16511 1
   12884     6179     6537 1
   12885    16067    16887 1
   12886     5936     6095 1
   12887     3557     3708 1
   12888     2457     2718 1
   12889    16435    16847 1
   12890    12257    12835 1
   12891      713     1358 1
   12892     7172     9517 1
   12893     5090     5349 1
   12894     2656     2740 1
   12895    10535    11398 1
   12896     8669     9882 1
   12897     7664     8076 1
   12898     8565     9441 1
   12899     7493     7689 1
   12900     2241     1904 1
   12901    10582    10661 1
   12902     3389     3568 1
   12903    12535    13249 1
   12904     8038     9540 1
   12905     2814     3004 1
   12906     2808     3283 1
   12907     5881     7099 1
   12908     2884     4185 1
   12909     3667     3891 1
   12910     4516     5191 1
   12911     4145     4584 1
   12912    15427    16689 1
   12913      925      413 1
   12914     6844     6873 1
   12915     7937     9261 1
   12916     8136     8733 1
   12917    16181    16707 1
   12918     1004     1411 1
   12919    16832    17118 1
   12920     5670     6227 1
   12921     5557     6172 1
   12922     6136     6475 1
   12923     8915     8099 1
   12924     8164     9418 1
   12925     3638     4749 1
   12926     6234     6355 1
   12927     1087      870 1
   12928     5132     5241 1
   12929     7868     9802 1
   12930     3682     4000 1
   12931     7196     7474 1
   12932     8400     9472 1
   12933     7342     8031 1
   12934    14515    15414 1
   12935     3153     2492 1
   12936     9632     9847 1
   12937     7189     9777 1
   12938     3982     4298 1
   12939     6325     7217 1
   12940     8113     8380 1
   12941    12075    12463 1
   12942     7716    10464 1
   12943     9366     9745 1
   12944    16247    17137 1
   12945     5775     6353 1
   12946    14049    14740 1
   12947     6634     7008 1
   12948     2856     2719 1
   12949     3002     3253 1
   12950    10958    11402 1
   12951     8357     9515 1
   12952     7334     9133 1
   12953     7733     8617 1
   12954     8620     9870 1
   12955     9362     9430 1
   12956    12735    12971 1
   12957     4124     4140 1
   12958    16097    17110 1
   12959     3706     4303 1
   12960    14104    14442 1
   12961    14267    15093 1
   12962    14118    14925 1
   12963     3078     1923 1
   12964    13884    13885 1
   12965     4149     4540 1
   12966     3398     4240 1
   12967     3387     2564 1
   12968     6565     7129 1
   12969    11878    12868 1
   12970    12056    12716 1
   12971       14      458 1
   12972     1255     1612 1
   12973    14122    14150 1
   12974    12552    16522 1
   12975    12756    12852 1
   12976     8156     9473 1
   12977    15482    16466 1
   12978     7585     9142 1
   12979     1791     2371 1
   12980     8099     8130 1
   12981    16976    17184 1
   12982    10451    11252 1
   12983     3626     5195 1
   12984    15564    16383 1
   12985    14018    14469 1
   12986        3      639 1
   12987       51     1333 1
   12988     8336     9830 1
   12989     4658     5190 1
   12990      928      977 1
   12991     8904     9463 1
   12992    14582    15404 1
   12993     7271    10031 1
   12994     7440     8551 1
   12995      944      242 1
   12996     8337     9475 1
   12997     4861     4926 1
   12998    16300    16519 1
   12999     7378     8071 1
   13000     8951     7955 1
   13001      839     1214 1
   13002     3740     4916 1
   13003    11881    12962 1
   13004     7575     9417 1
   13005    17194    17200 1
   13006      839      862 1
   13007     1560      384 1
   13008    12617    12839 1
   13009     1167     1569 1
   13010    12054    12621 1
   13011     1930     2484 1
   13012    12185    13458 1
   13013     7174     8157 1
   13014     6151     6188 1
   13015    10241    11203 1
   13016    15957    16206 1
   13017      669     5617 1
   13018     6095     6989 1
   13019     4402     4706 1
   13020     7402     7558 1
   13021    12675    12940 1
   13022     3598     4522 1
   13023     5545     6539 1
   13024     7886     8810 1
   13025     9070     7923 1
   13026     3801     4694 1
   13027     4845     5064 1
   13028    15625    17042 1
   13029     8975     8623 1
   13030    11983    12994 1
   13031     7452     8178 1
   13032     3413     2033 1
   13033    16442    17131 1
   13034    14201    14726 1
   13035    13805    14008 1
   13036    13992    14922 1
   13037    14434    15306 1
   13038     3826     4254 1
   13039    16783    17014 1
   13040     1095      655 1
   13041     5985     6508 1
   13042    15115    15167 1
   13043     2360     2371 1
   13044     4055     4118 1
   13045     8103    10036 1
   13046    12366    12700 1
   13047     4830     4845 1
   13048     7464     8017 1
   13049    14299    14625 1
   13050     9088    10035 1
   13051    13323    13506 1
   13052     7170     7909 1
   13053    15676    17062 1
   13054     9532     9898 1
   13055     7596     8816 1
   13056    15863    16029 1
   13057    14043    14482 1
   13058     3540     2728 1
   13059    13975    14983 1
   13060     3633     3976 1
   13061     7396     8601 1
   13062      885     1676 1
   13063     1199     1675 1
   13064     6311     6328 1
   13065      775      310 1
   13066    12013    12128 1
   13067    16572    16675 1
   13068     9138     9241 1
   13069     4051     4827 1
   13070     3878     4944 1
   13071    11850    12869 1
   13072     8135     9465 1
   13073    16393    16945 1
   13074    10629    11023 1
   13075    12955    13209 1
   13076     6585     6968 1
   13077     1293     1498 1
   13078     4338     2112 1
   13079     3106     2240 1
   13080     5725     6501 1
   13081     1357      128 1
   13082     3206     2434 1
   13083     9023     8141 1
   13084    13961    14233 1
   13085    12088    12910 1
   13086     2976     3481 1
   13087     1438     1501 1
   13088     3610     5227 1
   13089      856     1616 1
   13090     7783    10050 1
   13091        7     1061 1
   13092     9054     8856 1
   13093     1156     1538 1
   13094    15834    16104 1
   13095     4197     4465 1
   13096    13802    15056 1
   13097     5985     6768 1
   13098      327     2547 1
   13099     4432     4514 1
   13100     7695     8393 1
   13101    14191    14754 1
   13102    13158    13344 1
   13103     6089     7129 1
   13104     5436     5860 1
   13105    12538    13495 1
   13106     6103     8526 1
   13107     8862     8459 1
   13108     8322     9476 1
   13109      919     1169 1
   13110      495      302 1
   13111    14278    15052 1
   13112     1168      641 1
   13113       95      377 1
   13114    12601    12620 1
   13115    15811    16648 1
   13116     1682      259 1
   13117     3937     5180 1
   13118      447      119 1
   13119    15454    15499 1
   13120    16219    16588 1
   13121     1144     1487 1
   13122    15835    16980 1
   13123     6096     6453 1
   13124    10846    10926 1
   13125     3858     4619 1
   13126      711     1537 1
   13127    12942    14242 1
   13128    11976    13414 1
   13129    13792    14155 1
   13130     7369     7666 1
   13131     7420     8182 1
   13132     3621     5198 1
   13133    13780    14227 1
   13134      689      332 1
   13135     4284     5215 1
   13136     4003     5117 1
   13137     9046     9480 1
   13138     5102     5351 1
   13139    12592    13114 1
   13140    13933    14349 1
   13141     9000     9052 1
   13142     8480    14725 1
   13143    10495    11334 1
   13144     8717     9797 1
   13145     7767     9993 1
   13146     3734     4191 1
   13147     2857     2163 1
   13148     8503     9822 1
   13149     1027      762 1
   13150      758     1653 1
   13151    16171    16504 1
   13152     9558     9864 1
   13153     7749    10002 1
   13154     7382     9073 1
   13155     5542     6140 1
   13156     5598     6972 1
   13157     5630     7098 1
   13158     3749     4487 1
   13159     4674     4425 1
   13160    15779    17115 1
   13161     5581     5891 1
   13162    14598    15147 1
   13163     3509     1953 1
   13164     8212     8541 1
   13165    15436    15880 1
   13166     5518     5526 1
   13167     1048     1681 1
   13168    10894    11538 1
   13169     3731     4828 1
   13170     5722     7033 1
   13171    10142    10450 1
   13172     6217     7099 1
   13173    16614    16686 1
   13174    10742    10755 1
   13175    10121    10527 1
   13176     4316     4643 1
   13177     3851     4597 1
   13178    11856    12445 1
   13179     1692      107 1
   13180     4492     4847 1
   13181     2257     1798 1
   13182    11945    12351 1
   13183      373      280 1
   13184    10894    11270 1
   13185    15449    16250 1
   13186     9443     9996 1
   13187    12098    13235 1
   13188    12888    13365 1
   13189     4231     4704 1
   13190     3127     3354 1
   13191     9313     9518 1
   13192    13684    15371 1
   13193      336      266 1
   13194     8948     8983 1
   13195     1032      688 1
   13196     8440     9524 1
   13197       86      806 1
   13198    14582    15257 1
   13199    15659    16052 1
   13200     8039     9489 1
   13201     7319     9368 1
   13202      929      879 1
   13203    10865    11003 1
   13204     7001     7069 1
   13205    14027    15143 1
   13206     1284     1644 1
   13207    10637    10777 1
   13208     4752     5252 1
   13209     1406      471 1
   13210    10657    11466 1
   13211     5076     5126 1
   13212     6052     6771 1
   13213     7191     9303 1
   13214    15627    15829 1
   13215     1281      600 1
   13216      968     1510 1
   13217     3436     2664 1
   13218    12089    13228 1
   13219    14738    15981 1
   13220    15671    16066 1
   13221     4684     4596 1
   13222     2659     2708 1
   13223    15913    16681 1
   13224     2827     2412 1
   13225      678     1431 1
   13226    16086    17152 1
   13227     8046     9169 1
   13228     9811     9927 1
   13229     9024     7306 1
   13230     8781     9317 1
   13231     8167     8547 1
   13232    10962    11400 1
   13233     3609     4404 1
   13234     3065     3240 1
   13235    13956    14108 1
   13236     5708     6574 1
   13237    13896    13967 1
   13238    12055    13231 1
   13239      711     1645 1
   13240    10155    11191 1
   13241     4200     4478 1
   13242    16952    17095 1
   13243     2852     2029 1
   13244     3481     3530 1
   13245    13635    14219 1
   13246      863      445 1
   13247     7551     9170 1
   13248     7204     7413 1
   13249    17139    17217 1
   13250     9332     9541 1
   13251    15638    15684 1
   13252     3899     4205 1
   13253      938      430 1
   13254      725     1308 1
   13255     7997     8021 1
   13256     8187     9718 1
   13257    11045    11162 1
   13258     6277     6531 1
   13259    10678    10879 1
   13260     4854     5028 1
   13261     5530     6540 1
   13262       11      176 1
   13263     2297     2132 1
   13264     3508     2180 1
   13265     4666     4592 1
   13266    12743    13460 1
   13267    14747    14837 1
   13268      821     1468 1
   13269      526     1718 1
   13270     2825     3229 1
   13271    12241    12258 1
   13272     1440      271 1
   13273     7908     8010 1
   13274    13816    15402 1
   13275     5904     6862 1
   13276     7966     8243 1
   13277     3022     2188 1
   13278      911      949 1
   13279    13470    13536 1
   13280    14498    14759 1
   13281    10643    11738 1
   13282    16665    16750 1
   13283      909      628 1
   13284    14353    15335 1
   13285    16654    16682 1
   13286     5370     6063 1
   13287     3280     2658 1
   13288    15484    16836 1
   13289    12272    13518 1
   13290    15470    16496 1
   13291     8596     9357 1
   13292     1193      293 1
   13293     6593     6678 1
   13294      660      245 1
   13295    13825    15293 1
   13296    15754    16064 1
   13297     5809     5952 1
   13298      950      474 1
   13299     7337     9857 1
   13300    15247    16099 1
   13301     3397     1949 1
   13302    14671    15270 1
   13303    16604    17069 1
   13304    14926    14990 1
   13305    16844    17194 1
   13306    14016    14641 1
   13307     4502     5294 1
   13308     4263     4881 1
   13309     2844     2273 1
   13310      643      654 1
   13311     7537     8125 1
   13312     7304     9909 1
   13313    16672    17182 1
   13314    14128    14815 1
   13315    10065    10362 1
   13316    16008    17004 1
   13317     3641     3765 1
   13318     8522     8587 1
   13319     5706     6937 1
   13320    10300    10986 1
   13321    15485    16533 1
   13322    10318    11277 1
   13323    16283    16921 1
   13324     3032     3448 1
   13325     7336     8421 1
   13326    15479    15887 1
   13327     8138     8586 1
   13328     7551     7954 1
   13329     8934     9852 1
   13330    12399    13582 1
   13331    14955    15136 1
   13332     3495     2457 1
   13333     7398     9241 1
   13334    14506    15300 1
   13335    10208    15440 1
   13336     2298     1866 1
   13337    14702    14706 1
   13338    14244    15334 1
   13339     4248     4442 1
   13340     3324     2525 1
   13341     7298     7763 1
   13342     3834     5149 1
   13343     3226     2546 1
   13344     1453      221 1
   13345      596      454 1
   13346      565      177 1
   13347     5705     6206 1
   13348     4284     5108 1
   13349    13951    13987 1
   13350     2932     2661 1
   13351    13936    15057 1
   13352     2129     2517 1
   13353     7677     8152 1
   13354     3599     4886 1
   13355     2425     2446 1
   13356    14783    15311 1
   13357    10328    11400 1
   13358    11113    11725 1
   13359     9131     9866 1
   13360    10302    10712 1
   13361     4049     4397 1
   13362     1050     1781 1
   13363     5983     6253 1
   13364     7615     8619 1
   13365     7423     9483 1
   13366    16046    16690 1
   13367     8384     9076 1
   13368    13710    15058 1
   13369    10631    10642 1
   13370     7635     9505 1
   13371    15462    16460 1
   13372    14072    14092 1
   13373      703     1668 1
   13374    15513    15823 1
   13375     3219     2083 1
   13376     8771     8855 1
   13377    16187    16577 1
   13378    13761    13826 1
   13379    14646    15332 1
   13380    12185    12509 1
   13381     2006     2586 1
   13382     6364     6730 1
   13383      616     1339 1
   13384     1572      132 1
   13385    12407    13036 1
   13386     1671      276 1
   13387     8334     8737 1
   13388     7246     9754 1
   13389    15673    16656 1
   13390    12554    12661 1
   13391     7728     9880 1
   13392     1960     2739 1
   13393    16633    17111 1
   13394     2736     7441 1
   13395     1286      443 1
   13396    15819    15891 1
   13397    16298    16976 1
   13398     4005     5088 1
   13399     6539     6691 1
   13400     2507     2615 1
   13401    16504    17102 1
   13402     6291     7089 1
   13403    14948    15031 1
   13404     9016     9608 1
   13405     2184     2201 1
   13406     8535     8663 1
   13407    16335    16568 1
   13408    16068    16380 1
   13409     3186     1956 1
   13410     3621     4733 1
   13411     1131      211 1
   13412     4247     4547 1
   13413     6311     6584 1
   13414     1092      736 1
   13415     5931     6746 1
   13416     8967     9936 1
   13417    12026    12739 1
   13418    10099    10974 1
   13419     5894     6963 1
   13420     6054    10733 1
   13421    10868    10979 1
   13422     7591     9324 1
   13423     8430     9689 1
   13424     5087     5161 1
   13425     3245     3265 1
   13426     5537     6318 1
   13427     3124     2210 1
   13428     3049     3385 1
   13429     7430     8027 1
   13430    11058    11463 1
   13431    12376    13056 1
   13432     1532     1651 1
   13433     3937     4651 1
   13434     2977     2078 1
   13435     9120     9651 1
   13436    12418    13389 1
   13437     4971     5049 1
   13438    11946    12060 1
   13439    10214    11111 1
   13440     8381     9853 1
   13441     9041     8766 1
   13442    11846    12582 1
   13443    13824    15374 1
   13444     6391     6673 1
   13445    11976    12574 1
   13446     5858     6069 1
   13447      917     1012 1
   13448     7867     9204 1
   13449    16952    17217 1
   13450     8585     9512 1
   13451     8984     9970 1
   13452     7424     7490 1
   13453    17050    17070 1
   13454     4392     5040 1
   13455     2948     3340 1
   13456     3077     2582 1
   13457    12350    12678 1
   13458    14376    14708 1
   13459     1109     1199 1
   13460     3146     2005 1
   13461     4199     4719 1
   13462    12402    12835 1
   13463    10200    11147 1
   13464    12393    12999 1
   13465     5600     7006 1
   13466     7037     7052 1
   13467     1541     1341 1
   13468     9295     9993 1
   13469     3868     4603 1
   13470    13715    14167 1
   13471     1166      172 1
   13472    10438    11743 1
   13473    15609    16661 1
   13474     2840     2163 1
   13475    12217    13326 1
   13476    10567    11171 1
   13477     7705     8684 1
   13478     6012     6081 1
   13479    13699    14078 1
   13480    13685    15058 1
   13481    16280    16904 1
   13482      105     1353 1
   13483     7357     8372 1
   13484      566      584 1
   13485    11265    11364 1
   13486     5689     7010 1
   13487     7808     8644 1
   13488    12637    13075 1
   13489     7667     9890 1
   13490     4313     4381 1
   13491    12702    12963 1
   13492    12157    13377 1
   13493     4793     4603 1
   13494    15861    16395 1
   13495     2938     2569 1
   13496     7174     7287 1
   13497     3770     4923 1
   13498     2056     2593 1
   13499    13219    13548 1
   13500      877     1345 1
   13501     7289     8794 1
   13502      745      607 1
   13503      501      453 1
   13504    10349    11736 1
   13505     1086     1620 1
   13506     1402      465 1
   13507    13198    15718 1
   13508     6573     6767 1
   13509    16217    16634 1
   13510    14082    15166 1
   13511    13250    13600 1
   13512     3377     3546 1
   13513     3066     3374 1
   13514    15110    15170 1
   13515     3917     5305 1
   13516     7997     8505 1
   13517     4508     4559 1
   13518     3677     3789 1
   13519    14618    15043 1
   13520     5426     5809 1
   13521     4285     4389 1
   13522    14551    15375 1
   13523     4684     5105 1
   13524    12661    12674 1
   13525    10944    11448 1
   13526     8901    10011 1
   13527     9038     7606 1
   13528     9007     7491 1
   13529     4008     4501 1
   13530    15594    17070 1
   13531     8027     8321 1
   13532     8571     9786 1
   13533     4273     5111 1
   13534     4473     5187 1
   13535      968     1574 1
   13536     5588     5887 1
   13537    14237    15131 1
   13538     3025     2328 1
   13539     2771     2718 1
   13540     5863     7141 1
   13541    16725    16844 1
   13542     5905     6612 1
   13543    10965    11759 1
   13544    15737    16299 1
   13545    11193    11201 1
   13546     3934     4857 1
   13547     4352     5272 1
   13548     8780    10047 1
   13549     7405     7945 1
   13550     3150     2176 1
   13551     7434     9077 1
   13552    16157    16266 1
   13553       61     1600 1
   13554     8393     9087 1
   13555    12472    12648 1
   13556      610     1546 1
   13557    10928    11071 1
   13558    12630    12746 1
   13559     2834     2439 1
   13560     5758     6371 1
   13561     5674     6898 1
   13562     6802     6909 1
   13563    10510    10557 1
   13564     7511     9506 1
   13565      981     1509 1
   13566     7155     7505 1
   13567     4763     4794 1
   13568     4191     4984 1
   13569     7343     8665 1
   13570    13654    13745 1
   13571    16454    16526 1
   13572    13044    14652 1
   13573     3331     2192 1
   13574     6610     7028 1
   13575    11927    12388 1
   13576     9080     9417 1
   13577     3173     3244 1
   13578     8982     7720 1
   13579     4606     5336 1
   13580     2820     2868 1
   13581      556     1773 1
   13582     7361     8693 1
   13583    15958    16036 1
   13584     3151     2275 1
   13585     3752     4806 1
   13586     2774     2730 1
   13587     7743     9072 1
   13588    12846    13314 1
   13589    11729    11818 1
   13590     6008     6731 1
   13591    14496    14821 1
   13592     4594     5096 1
   13593    10125    10910 1
   13594     9024     8399 1
   13595    10132    11814 1
   13596     8754     9425 1
   13597     5458     5776 1
   13598    16026    16163 1
   13599     7933     9546 1
   13600    15434    16461 1
   13601    12235    12743 1
   13602     3992     5029 1
   13603    12432    12618 1
   13604     2937     3469 1
   13605    15527    15732 1
   13606     7443    10034 1
   13607    10106    11385 1
   13608    14340    14374 1
   13609    14628    15053 1
   13610    10632    11598 1
   13611    14477    14828 1
   13612    10492    10984 1
   13613     7257     7588 1
   13614    14929    15108 1
   13615    11139    15665 1
   13616    13908    14026 1
   13617     7916     9835 1
   13618     4183     5116 1
   13619    16049    16125 1
   13620      552     1412 1
   13621    16117    16297 1
   13622     5593     6415 1
   13623     5690     6533 1
   13624     7858     9978 1
   13625     3418     2476 1
   13626     1078     1728 1
   13627     9523     9563 1
   13628    16260    16992 1
   13629    11199    11484 1
   13630    10570    11712 1
   13631     1370      305 1
   13632    11287    11460 1
   13633     8932     7731 1
   13634     8999     9633 1
   13635     3812     4178 1
   13636    12567    12803 1
   13637     5510     6749 1
   13638     8485     9689 1
   13639    16608    16609 1
   13640    13767    14301 1
   13641     5486     6768 1
   13642    10230    11155 1
   13643     7253     9756 1
   13644     7876     9939 1
   13645    13176    13462 1
   13646     1031      784 1
   13647      403      206 1
   13648    11006    11520 1
   13649     1404      263 1
   13650     1963     1847 1
   13651    12007    12916 1
   13652     8021     9702 1
   13653     3579     5220 1
   13654      339     1785 1
   13655     5614     6041 1
   13656     5602     5835 1
   13657     8988     8106 1
   13658     3056     3428 1
   13659       21      138 1
   13660     2418     2464 1
   13661     8136     8496 1
   13662     3256     2500 1
   13663    14622    15354 1
   13664    10667    10669 1
   13665     4632     4989 1
   13666    11891    12038 1
   13667     8212     9153 1
   13668     8688     9299 1
   13669     3024     3286 1
   13670    12900    13609 1
   13671       73      413 1
   13672     2150     2009 1
   13673     6386     6473 1
   13674    10292    11195 1
   13675     1508      396 1
   13676    16201    16214 1
   13677     4875     5085 1
   13678     6269     6308 1
   13679    10918    11367 1
   13680     5853     6361 1
   13681     7556     9544 1
   13682     1523     1576 1
   13683    13280    13388 1
   13684    10736    11138 1
   13685    15470    17015 1
   13686    13898    15022 1
   13687     1301     1514 1
   13688     2020     2075 1
   13689      737     1287 1
   13690     5024     5264 1
   13691    16069    16903 1
   13692    15429    16070 1
   13693     2902     2335 1
   13694     8032     9935 1
   13695     5935     6346 1
   13696    13749    14152 1
   13697     3534     2751 1
   13698    12934    13369 1
   13699     2018      140 1
   13700    14559    15184 1
   13701     3898     4872 1
   13702     3625     4453 1
   13703    15458    16145 1
   13704     8884     9311 1
   13705    16271    16861 1
   13706     6113     7076 1
   13707    11528    11803 1
   13708    14778    14843 1
   13709      131      151 1
   13710     3729     4948 1
   13711     7868     8696 1
   13712     7158     8386 1
   13713    10856    11345 1
   13714     5765     6174 1
   13715      853     1487 1
   13716       36     1662 1
   13717     4518     4542 1
   13718    16613    17118 1
   13719    13971    14712 1
   13720    13876    15024 1
   13721     5796     6290 1
   13722     5982     7153 1
   13723     3723     4890 1
   13724     3878     4569 1
   13725     7364     9398 1
   13726    10168    11768 1
   13727      238    12925 1
   13728    15995    16555 1
   13729      597     1776 1
   13730     3524     1977 1
   13731      706      121 1
   13732     9006     8547 1
   13733    10114    10460 1
   13734       88     1688 1
   13735     2245     2042 1
   13736      872     1343 1
   13737     1543      122 1
   13738    13762    14893 1
   13739     6751     7152 1
   13740      798     1401 1
   13741    12022    13189 1
   13742    11190    11612 1
   13743    14402    14924 1
   13744     3355     2362 1
   13745    12155    13592 1
   13746    14243    15196 1
   13747    10968    11791 1
   13748    11183    11351 1
   13749     6261     7043 1
   13750    14073    14419 1
   13751     7334     9862 1
   13752    11074    11366 1
   13753    16137    17218 1
   13754     6307     7130 1
   13755    15391    15837 1
   13756    10845    11451 1
   13757     8859     8298 1
   13758    14090    14204 1
   13759     8708     9372 1
   13760     1073     1787 1
   13761       85      696 1
   13762     7606     9330 1
   13763    14225    14585 1
   13764    13788    15144 1
   13765     3880     4781 1
   13766     3096     3421 1
   13767     1442      479 1
   13768     8974     9349 1
   13769     2881     2004 1
   13770     1056      160 1
   13771     7289     7783 1
   13772    11384    11628 1
   13773     3775     3902 1
   13774     7855     8705 1
   13775    15680    15723 1
   13776    12063    12371 1
   13777     7339     7821 1
   13778     5672     7117 1
   13779     8989     7986 1
   13780     7254     7892 1
   13781     4276     5238 1
   13782     4333     5177 1
   13783     7508     7744 1
   13784     3058     2702 1
   13785     1920     2452 1
   13786     6243     7042 1
   13787     7980     9092 1
   13788     3643     3967 1
   13789    15166    15419 1
   13790     8823     9474 1
   13791    16122    16219 1
   13792    15644    16833 1
   13793     8859     9264 1
   13794     2992     3053 1
   13795    15936    17167 1
   13796     3851     4389 1
   13797     1305     1751 1
   13798    12359    13503 1
   13799     4300     5049 1
   13800    16576    17172 1
   13801      818     1697 1
   13802     1667     1482 1
   13803    10923    11142 1
   13804      762     1458 1
   13805    16699    17033 1
   13806    12428    12705 1
   13807    14214    15392 1
   13808    14288    14688 1
   13809     2842     1912 1
   13810     4000     4986 1
   13811    11968    13469 1
   13812     4002     4850 1
   13813    10499    10842 1
   13814     7456     9991 1
   13815     6106     6852 1
   13816     5460     6499 1
   13817    10163    10363 1
   13818    12828    12946 1
   13819     5892     6299 1
   13820     2992     2058 1
   13821     8190     9769 1
   13822     7482     7771 1
   13823    15562    16101 1
   13824     8603     9860 1
   13825     6895     7022 1
   13826    16086    17049 1
   13827     4196     4396 1
   13828     7609     8464 1
   13829    10084    11449 1
   13830     1952     2063 1
   13831     3331     1964 1
   13832    12230    13324 1
   13833    16973    17134 1
   13834    10915    11215 1
   13835    11887    12761 1
   13836     1240      559 1
   13837    11501    11520 1
   13838     2791     2401 1
   13839     1150     1483 1
   13840    15974    16684 1
   13841    12007    12907 1
   13842    16102    16211 1
   13843     7751     9202 1
   13844     4164     4402 1
   13845     6209     6271 1
   13846     4580     5266 1
   13847    16070    16677 1
   13848     7607     9742 1
   13849     4046     4380 1
   13850     8038     8588 1
   13851     8219     9873 1
   13852     1703      295 1
   13853    16230    16837 1
   13854     1553     1325 1
   13855    16428    17072 1
   13856     3737     5047 1
   13857    14094    15040 1
   13858     9120    15244 1
   13859     9570     9650 1
   13860     5920     6623 1
   13861     4316     5065 1
   13862     2270     1965 1
   13863    12096    13060 1
   13864     9221     9488 1
   13865     3022     3532 1
   13866     7797     8770 1
   13867      872     1587 1
   13868    15147    16558 1
   13869     5369     5834 1
   13870    12715    12836 1
   13871    12029    12669 1
   13872     4396     5093 1
   13873     9072     9304 1
   13874     3870     5164 1
   13875    11999    13192 1
   13876    10995    11466 1
   13877    14202    14522 1
   13878    14237    14378 1
   13879    10511    11207 1
   13880     8999     8092 1
   13881     8273     9796 1
   13882    10171    10574 1
   13883     8865    10008 1
   13884    16000    16521 1
   13885     3771     4162 1
   13886    10242    11720 1
   13887     3895     4173 1
   13888    13878    14099 1
   13889     7507     8673 1
   13890    14480    14883 1
   13891     2357     2668 1
   13892    15435    16361 1
   13893     3284     2002 1
   13894     8181     8704 1
   13895     1543     1747 1
   13896     3885     4930 1
   13897    15514    16529 1
   13898     4108     4122 1
   13899      426      433 1
   13900      620     1579 1
   13901     2475    14216 1
   13902     2551     2564 1
   13903     5447     6978 1
   13904    16379    17190 1
   13905    10275    11350 1
   13906     7191     7486 1
   13907     6108     6635 1
   13908    13846    14785 1
   13909     7982     8105 1
   13910    13862    14252 1
   13911     3763     4733 1
   13912    15486    15833 1
   13913    15468    16432 1
   13914    14697    15053 1
   13915     6508     6535 1
   13916     7976     9549 1
   13917    14923    15280 1
   13918      687     1783 1
   13919    13784    14205 1
   13920     4472     4543 1
   13921     7893     9209 1
   13922     3153     2348 1
   13923    12191    12354 1
   13924     1176     1584 1
   13925    10898    11297 1
   13926    16549    17101 1
   13927    16187    16729 1
   13928    15961    16304 1
   13929    10483    11145 1
   13930      903      973 1
   13931    11985    12174 1
   13932       50     1467 1
   13933    15825    16495 1
   13934     5361     6744 1
   13935     6313     6736 1
   13936    16546    16790 1
   13937     3671     5300 1
   13938    10258    10516 1
   13939    14309    14344 1
   13940    10968    11170 1
   13941    16346    17175 1
   13942     5899     6880 1
   13943    10478    11130 1
   13944     4419     4493 1
   13945     7696     9344 1
   13946     7930     9946 1
   13947     3326     2317 1
   13948     3652     4448 1
   13949     5937     6797 1
   13950     1276     1542 1
   13951     5514     6279 1
   13952    13906    14136 1
   13953    15831    16672 1
   13954     6390     6640 1
   13955    15683    15889 1
   13956     4216     5147 1
   13957     1528     1697 1
   13958     4881     5070 1
   13959     3060     2318 1
   13960     7986     8142 1
   13961     3926     5322 1
   13962     6162     6920 1
   13963    10907    11584 1
   13964     7849     9791 1
   13965     4074     4292 1
   13966     3581     4600 1
   13967    16636    16936 1
   13968    15741    16063 1
   13969    11103    11732 1
   13970     1027      135 1
   13971     2796     2354 1
   13972    12667    12778 1
   13973     2960     3369 1
   13974     5459     6264 1
   13975      636     1452 1
   13976    15652    15794 1
   13977    16105    17146 1
   13978     1706     1433 1
   13979     5998     6605 1
   13980     8961     7195 1
   13981      803      205 1
   13982    13836    15300 1
   13983      887      459 1
   13984     2572     2748 1
   13985     2858     2208 1
   13986    14641    15107 1
   13987    13766    13977 1
   13988    14403    15192 1
   13989    10225    11471 1
   13990     5471     6550 1
   13991     5917     6963 1
   13992    12195    12948 1
   13993       96     1156 1
   13994    14555    15269 1
   13995     4176     4987 1
   13996    14666    14997 1
   13997    16551    16623 1
   13998    14455    15264 1
   13999    14376    15130 1
   14000     8225     9613 1
   14001      857     1177 1
   14002     6816     7060 1
   14003      936      250 1
   14004     6262     6357 1
   14005     1233      683 1
   14006     6410     6678 1
   14007    15457    17058 1
   14008     3433     2146 1
   14009    11115    11468 1
   14010     1237     1745 1
   14011    12330    12902 1
   14012     8068     8611 1
   14013    16584    16917 1
   14014    10653    11152 1
   14015     6052     6716 1
   14016     3935     4084 1
   14017    12096    12525 1
   14018    12347    13573 1
   14019    10652    11831 1
   14020    12530    13168 1
   14021    10542    11339 1
   14022    11975    12737 1
   14023     8193    10010 1
   14024     2920     2487 1
   14025    10956    11519 1
   14026    16059    16476 1
   14027     8719     9995 1
   14028     7637     8721 1
   14029       43     1581 1
   14030     1435      227 1
   14031     5421     6028 1
   14032    12407    12424 1
   14033     2801     3518 1
   14034     9052     7299 1
   14035     3496     2070 1
   14036    13783    14374 1
   14037    12612    12625 1
   14038    12610    12910 1
   14039     3351     2611 1
   14040    16606    17011 1
   14041     7205     7848 1
   14042     4243     4760 1
   14043     4231     4642 1
   14044    10171    10630 1
   14045     7270     8695 1
   14046     7881     8127 1
   14047     4992     5010 1
   14048    10774    11509 1
   14049    15719    16631 1
   14050    13756    14111 1
   14051     6393     6651 1
   14052     6129     6920 1
   14053    13558    13620 1
   14054     4290     5028 1
   14055     3079     2537 1
   14056    16053    16915 1
   14057     5830     6871 1
   14058    15905    17209 1
   14059    12174    12682 1
   14060       46     1755 1
   14061     4700     5067 1
   14062     4105     4893 1
   14063    14151    15368 1
   14064    12580    13157 1
   14065     3040     3399 1
   14066    14403    15406 1
   14067     6153     6257 1
   14068    12058    13179 1
   14069     1553      417 1
   14070    14192    14665 1
   14071    11311    11432 1
   14072    12112    12373 1
   14073    16561    16733 1
   14074    16971    16989 1
   14075    10066    10527 1
   14076     6968     7149 1
   14077    15958    16164 1
   14078    16174    16528 1
   14079    12348    12955 1
   14080    12765    13286 1
   14081    15741    16967 1
   14082    13978    15151 1
   14083    14221    14466 1
   14084     3252     3457 1
   14085    16013    17192 1
   14086    10714    11125 1
   14087    13837    14727 1
   14088     5833     6770 1
   14089     8134    14324 1
   14090    16309    16359 1
   14091    10961    11583 1
   14092    11084    11411 1
   14093     2358     2750 1
   14094    10235    11679 1
   14095       40      642 1
   14096     2912     2072 1
   14097     4423     5059 1
   14098    15585    16689 1
   14099     9060     8102 1
   14100     9112     9214 1
   14101     8351     9906 1
   14102    12454    13403 1
   14103      841     1485 1
   14104     7503     8141 1
   14105      824     1386 1
   14106     3698     5196 1
   14107     5642     6314 1
   14108     8995     8735 1
   14109     9824     9946 1
   14110    12320    12666 1
   14111    14304    15125 1
   14112     1059     1765 1
   14113    11036    11241 1
   14114      489      268 1
   14115     4622     5352 1
   14116    12025    13470 1
   14117     1868     2694 1
   14118    10626    10940 1
   14119     8229     9831 1
   14120     7757     8165 1
   14121     4067     5224 1
   14122     8219     8313 1
   14123     3206     3477 1
   14124     4397     4955 1
   14125    10108    10868 1
   14126     2953     3435 1
   14127     5875     6477 1
   14128    10716    11593 1
   14129    14651    15277 1
   14130     3594     3700 1
   14131    14052    15255 1
   14132    14195    15006 1
   14133     1160     1235 1
   14134      475     1771 1
   14135     7377     8699 1
   14136     2977     2303 1
   14137     1724      304 1
   14138     8301     8456 1
   14139     6281     6427 1
   14140    12899    13516 1
   14141    14132    14352 1
   14142    15268    15349 1
   14143     7772     9473 1
   14144     4020     4211 1
   14145      800     1344 1
   14146     7438     9418 1
   14147     4791     4856 1
   14148    14798    14827 1
   14149    10322    11436 1
   14150    10733    11266 1
   14151     1063      396 1
   14152    15842    16849 1
   14153     7244     9345 1
   14154     7303     9676 1
   14155     3199     2722 1
   14156     3853     3944 1
   14157     3865     4766 1
   14158     3140     3569 1
   14159    14516    15271 1
   14160     3518     2391 1
   14161     9213     9544 1
   14162     3773     3972 1
   14163     1750      126 1
   14164     5921     6603 1
   14165     3159     3238 1
   14166     1159     1483 1
   14167    12470    13108 1
   14168     3664     4075 1
   14169     5613     7007 1
   14170     4004     1952 1
   14171    11150    11506 1
   14172    16244    16864 1
   14173      847     5313 1
   14174     7293     9940 1
   14175    16481    16737 1
   14176     6481     6880 1
   14177    10747    11535 1
   14178     5523     5841 1
   14179    16518    17001 1
   14180     6180    10800 1
   14181     1384      268 1
   14182     8703     9380 1
   14183     8484     9083 1
   14184      963     1422 1
   14185    12647    12880 1
   14186     7950     9428 1
   14187     5930     5942 1
   14188    16443    16715 1
   14189    15870    15892 1
   14190    11078    11577 1
   14191     5590     6530 1
   14192    13642    15420 1
   14193     3714     3903 1
   14194     4336     5282 1
   14195     3026     2554 1
   14196     4874     5253 1
   14197    12723    13493 1
   14198    16447    17077 1
   14199    15897    17182 1
   14200     6175     6744 1
   14201     2913     2676 1
   14202     3726     4612 1
   14203    11348    11839 1
   14204     7732     8795 1
   14205      520      266 1
   14206      460      258 1
   14207    16616    16848 1
   14208    13374    13499 1
   14209     1671     1686 1
   14210    10159    10523 1
   14211     3910     5235 1
   14212    16920    16983 1
   14213    11922    12770 1
   14214     7462     9532 1
   14215    11866    13467 1
   14216     8969     8839 1
   14217    12340    12409 1
   14218     1017     4775 1
   14219      659     1680 1
   14220     3356     1917 1
   14221    12126    12176 1
   14222    12020    12332 1
   14223     3779     3975 1
   14224     2882     2615 1
   14225     4329     4491 1
   14226    11245    11730 1
   14227    10327    10867 1
   14228    13912    14442 1
   14229      704     1136 1
   14230     3514     1929 1
   14231     5724     5873 1
   14232    10276    10860 1
   14233    11964    12343 1
   14234    12671    13409 1
   14235     1215      436 1
   14236    16173    16411 1
   14237     3084     1924 1
   14238     9624     9959 1
   14239     5688     7126 1
   14240     2842     3553 1
   14241     7711     8653 1
   14242     6864     6970 1
   14243    12338    13605 1
   14244    11371    16719 1
   14245     1387     1785 1
   14246      826     1668 1
   14247     5925     6317 1
   14248    14643    15211 1
   14249     8921     9584 1
   14250     7449     8810 1
   14251     4137     5189 1
   14252    16311    16807 1
   14253    11961    12607 1
   14254     6419     6838 1
   14255    12217    13106 1
   14256    14482    15193 1
   14257    10643    11731 1
   14258    12569    12723 1
   14259     1025      599 1
   14260     5410     6991 1
   14261    14207    15070 1
   14262    12109    12363 1
   14263    13943    15386 1
   14264     6703     7149 1
   14265    13638    14698 1
   14266    14460    15157 1
   14267     5733     6429 1
   14268     4968     5207 1
   14269    10621    11518 1
   14270     3053     3389 1
   14271      562     1619 1
   14272     3701     5237 1
   14273    11866    12047 1
   14274     3767     5227 1
   14275     1063     1067 1
   14276     5956     6644 1
   14277     7810     9343 1
   14278    15797    16235 1
   14279    12579    13607 1
   14280     7542     9164 1
   14281     2824     3017 1
   14282    14318    14502 1
   14283     1321      455 1
   14284    16055    16325 1
   14285     7165     7763 1
   14286     8684     9675 1
   14287    15879    17022 1
   14288    12749    13190 1
   14289     5444     5908 1
   14290    10238    11668 1
   14291    13977    14143 1
   14292    14231    14657 1
   14293     7223     8786 1
   14294     4077     4491 1
   14295     5396     6665 1
   14296     2193     2615 1
   14297     7973     8419 1
   14298    10704    11157 1
   14299    12501    13505 1
   14300     2194     1754 1
   14301    13736    14097 1
   14302     1349      373 1
   14303     5679     5921 1
   14304     3583     4938 1
   14305     3576     4954 1
   14306    12502    12620 1
   14307     3432     1255 1
   14308    16187    16320 1
   14309     1089      570 1
   14310      336      138 1
   14311     1578      117 1
   14312     4064     4335 1
   14313    14487    14653 1
   14314    15700    16784 1
   14315    16056    17202 1
   14316     1200      664 1
   14317     4682     4772 1
   14318     7299     8047 1
   14319     3817     4389 1
   14320     8385    13868 1
   14321    10343    11592 1
   14322    14978    15421 1
   14323    11966    13386 1
   14324     5888     6133 1
   14325    11994    13157 1
   14326     6154     6596 1
   14327     5374     5394 1
   14328     6739     7101 1
   14329    14028    14698 1
   14330     1722      394 1
   14331     7178     9299 1
   14332     5363     6416 1
   14333    10934    11687 1
   14334     3176     3554 1
   14335    11224    11685 1
   14336    16175    17189 1
   14337      845     1462 1
   14338    14213    14353 1
   14339    10300    10638 1
   14340    14274    14286 1
   14341     3503     2505 1
   14342     2754     2132 1
   14343     8734     9631 1
   14344    14419    14725 1
   14345     9045     7458 1
   14346     7388     9860 1
   14347     3202     2381 1
   14348    15894    16838 1
   14349     2796     3507 1
   14350     6118     7123 1
   14351     8968     9850 1
   14352     2964     2259 1
   14353    10271    11449 1
   14354    15445    16094 1
   14355     7767     9522 1
   14356      697      889 1
   14357     3801     4122 1
   14358    11619    11840 1
   14359    12286    12998 1
   14360    12664    13591 1
   14361     5653     6437 1
   14362    15622    16836 1
   14363    10498    10518 1
   14364     5332     5343 1
   14365     3097     1950 1
   14366     7827     7960 1
   14367     9288     9645 1
   14368     2786     2077 1
   14369     3177     2503 1
   14370     7668     8820 1
   14371    13854    14552 1
   14372    15944    16081 1
   14373    12271    12521 1
   14374    14274    14490 1
   14375     4320     4520 1
   14376     5438     6785 1
   14377    12320    12634 1
   14378    10891    10959 1
   14379     5060     5254 1
   14380     8115     9178 1
   14381     6049     6538 1
   14382     2024     2734 1
   14383     4300     5202 1
   14384     3542     2541 1
   14385     2037     2465 1
   14386      754     1710 1
   14387     7440     9171 1
   14388     2411     2688 1
   14389     9130     9619 1
   14390     3980     4780 1
   14391    10780    11016 1
   14392     4290     5044 1
   14393    13269    13592 1
   14394     5503     6404 1
   14395     9635     9681 1
   14396     1049     1302 1
   14397     2098     2517 1
   14398    12648    13166 1
   14399     8417     9577 1
   14400    16069    16328 1
   14401     1299      674 1
   14402    10318    10437 1
   14403     3346     2073 1
   14404    11055    11689 1
   14405    14432    15039 1
   14406     3496     2545 1
   14407     6191    12349 1
   14408     6021     6848 1
   14409     4265     5201 1
   14410     7760     7940 1
   14411     2768     2888 1
   14412    15963    16975 1
   14413     7902     8658 1
   14414     5602     5647 1
   14415    12634    12670 1
   14416     9112     9163 1
   14417    12778    12858 1
   14418     3934     4110 1
   14419     3722     4218 1
   14420     5693     5824 1
   14421    14276    15142 1
   14422     7367     8122 1
   14423     6014     6979 1
   14424    13986    14110 1
   14425     5086     5345 1
   14426     5506     6943 1
   14427     9778     9882 1
   14428     8891     7889 1
   14429     4028     4726 1
   14430      940     1356 1
   14431    10313    11733 1
   14432     3185     1979 1
   14433    13644    13851 1
   14434    13371    13539 1
   14435     6197     6220 1
   14436    14113    14174 1
   14437    17062    17084 1
   14438     6379     6968 1
   14439    12323    13251 1
   14440     7669     9306 1
   14441    13850    14549 1
   14442     2880     1873 1
   14443     3457     2060 1
   14444     1996     2657 1
   14445    12041    13111 1
   14446    10476    11510 1
   14447     2055     2066 1
   14448    14235    14632 1
   14449     6132     6550 1
   14450     3315     2236 1
   14451     3863     5049 1
   14452    14338    16448 1
   14453     3333     2703 1
   14454    14548    15344 1
   14455    14155    14177 1
   14456     6047     7150 1
   14457     7353     9859 1
   14458    12660    12706 1
   14459     2924     2989 1
   14460    11514    11534 1
   14461    16190    17089 1
   14462     2115     2385 1
   14463     8162     8451 1
   14464     8916     9110 1
   14465     8041     9740 1
   14466    12817    13119 1
   14467    15785    15927 1
   14468    13885    15031 1
   14469     1917     2513 1
   14470      948     1753 1
   14471     1856     2637 1
   14472       28      305 1
   14473    12507    12636 1
   14474      721      360 1
   14475    14159    15062 1
   14476     8866     9403 1
   14477     7475     8502 1
   14478    15862    16981 1
   14479    12750    12789 1
   14480    11049    11060 1
   14481    12060    12352 1
   14482     9009     8740 1
   14483     3044     1851 1
   14484     7156     8325 1
   14485    12142    12611 1
   14486     4653     4458 1
   14487     5851     7030 1
   14488     5742     5933 1
   14489    14572    15000 1
   14490     4191     5124 1
   14491    12385    13091 1
   14492     2379     2513 1
   14493     2964     3036 1
   14494     4161     4860 1
   14495     7833     9745 1
   14496    13819    14963 1
   14497     4245     4545 1
   14498     8526     9427 1
   14499    15698    16096 1
   14500     5158     5220 1
   14501     7165     9385 1
   14502     1669      116 1
   14503    14130    15015 1
   14504     6001     6023 1
   14505     4982     5103 1
   14506     5704     6282 1
   14507     6064     7034 1
   14508    11076    11149 1
   14509     8235     9821 1
   14510     9998    10464 1
   14511    10891    11098 1
   14512    11906    13442 1
   14513     7953     9466 1
   14514     1837     2663 1
   14515    11316    11392 1
   14516     7815     7857 1
   14517    12785    13168 1
   14518     4475     4924 1
   14519     2958     3387 1
   14520     4302     4676 1
   14521     7515     9075 1
   14522     8212     9948 1
   14523    11027    11203 1
   14524     2802     3474 1
   14525    15013    15370 1
   14526     3438     2332 1
   14527     3659     4269 1
   14528      922      756 1
   14529     7179     9698 1
   14530    14689    14958 1
   14531     3959     4715 1
   14532     8199     8572 1
   14533    11209    11727 1
   14534     5716     5744 1
   14535    14304    14611 1
   14536     2770     3528 1
   14537     6097    12081 1
   14538     5427     6529 1
   14539     8953     9793 1
   14540    10057    10800 1
   14541      773      304 1
   14542    12906    12910 1
   14543     5566     8424 1
   14544       69     1369 1
   14545     6561     7041 1
   14546    14517    15264 1
   14547     2189     1990 1
   14548      909     1531 1
   14549    14032    14487 1
   14550    10881    10991 1
   14551    16244    16357 1
   14552     5592     7087 1
   14553     8744     9186 1
   14554    13024    13254 1
   14555     2046     2630 1
   14556     6259     6468 1
   14557     7614     9508 1
   14558    11491    11553 1
   14559    14311    14915 1
   14560     7259     8532 1
   14561     3784     4629 1
   14562     4337     5023 1
   14563    12114    12507 1
   14564     4426     5186 1
   14565    12504    13326 1
   14566     1922     2732 1
   14567       88      371 1
   14568     8148     9319 1
   14569     6487     7127 1
   14570     6931     7152 1
   14571     3408     2726 1
   14572     8457     9444 1
   14573     1442      320 1
   14574    10116    11388 1
   14575     5880     6472 1
   14576     1540     1699 1
   14577    15443    15463 1
   14578    10803    11191 1
   14579     6177     7063 1
   14580     4758     4583 1
   14581    11972    12039 1
   14582     3751     4922 1
   14583     8730     9075 1
   14584     5577     5872 1
   14585     8095     8663 1
   14586     7930     9576 1
   14587    12718    12768 1
   14588     2832     3087 1
   14589    14571    14778 1
   14590     3219     1813 1
   14591     4409     5187 1
   14592     7540     9900 1
   14593    14015    14040 1
   14594      610    12129 1
   14595    13758    15041 1
   14596     5265     5316 1
   14597     9218     9234 1
   14598     6790     7127 1
   14599    16586    16831 1
   14600    15516    15549 1
   14601    16914    17100 1
   14602     5836     6168 1
   14603    13663    13833 1
   14604     3400     1872 1
   14605     8080     9470 1
   14606     2011     2392 1
   14607    12497    12603 1
   14608     5521     6417 1
   14609      868     1543 1
   14610     7314     8580 1
   14611    14186    14959 1
   14612    14410    14751 1
   14613     2224     1792 1
   14614     3932     4822 1
   14615    12242    13455 1
   14616    16863    17186 1
   14617     2888     2497 1
   14618    14427    15095 1
   14619     7450     9718 1
   14620      769      782 1
   14621    13812    14414 1
   14622     3733     4080 1
   14623     3977     4245 1
   14624    14435    14812 1
   14625    10314    11560 1
   14626     5892     6232 1
   14627     9138     9343 1
   14628     4538     5081 1
   14629    14776    14879 1
   14630    12602    12698 1
   14631    12043    12765 1
   14632     3364     1930 1
   14633     7696     9972 1
   14634     7655     9384 1
   14635      785      441 1
   14636    13759    15221 1
   14637     7715     9628 1
   14638     2084     2499 1
   14639    12038    13500 1
   14640    10251    11322 1
   14641     8989     9125 1
   14642    10610    10901 1
   14643       38     1302 1
   14644    12397    12566 1
   14645     8247     8415 1
   14646     8151     8780 1
   14647     2207     1978 1
   14648     1086     1660 1
   14649     1239     1502 1
   14650    16044    17133 1
   14651     3103     3361 1
   14652     5749     5883 1
   14653    10064    10666 1
   14654    15016    15196 1
   14655     2859     2077 1
   14656    10081    11223 1
   14657      896     1129 1
   14658     3749     4672 1
   14659      970      574 1
   14660     5461     6866 1
   14661      652      440 1
   14662    14253    14485 1
   14663     5539     6711 1
   14664     6109     6763 1
   14665    16035    16428 1
   14666     6120     6190 1
   14667     7742     9775 1
   14668    13874    14266 1
   14669    11527    11587 1
   14670    13722    14062 1
   14671     3929     4200 1
   14672    16356    16879 1
   14673    16578    16921 1
   14674    14220    15316 1
   14675     5888     6400 1
   14676     2378     2729 1
   14677    14695    15140 1
   14678    10861    11579 1
   14679     5575     7039 1
   14680     9266     9420 1
   14681    10306    11693 1
   14682    10864    11088 1
   14683     9930    10039 1
   14684     2763     2971 1
   14685    12308    13628 1
   14686     7912     9917 1
   14687     7200     9077 1
   14688    12399    13225 1
   14689    10701    11509 1
   14690     9464    10016 1
   14691    11958    12058 1
   14692     7420     7593 1
   14693     5896     6577 1
   14694    10176    10763 1
   14695     7941     9982 1
   14696     4184     4414 1
   14697    11343    11525 1
   14698     1789     2526 1
   14699     8873     9356 1
   14700    14306    14937 1
   14701    15651    16347 1
   14702     7924     9298 1
   14703    13275    13549 1
   14704     6223     6679 1
   14705    11871    12711 1
   14706     4712     4720 1
   14707     3019     3193 1
   14708    15890    16103 1
   14709     8197     9228 1
   14710     7187     7406 1
   14711    11910    12036 1
   14712     4942     4950 1
   14713     5982     6183 1
   14714     6441     7123 1
   14715     2813     1899 1
   14716     2149     2295 1
   14717    13052    13245 1
   14718    16272    16944 1
   14719    10128    11204 1
   14720    16128    16222 1
   14721     7726     8195 1
   14722     5364     5444 1
   14723     1692      383 1
   14724    10448    10735 1
   14725     9061     8801 1
   14726     1028     1713 1
   14727    11440    11513 1
   14728     2853     2441 1
   14729     6134     7059 1
   14730    13872    14580 1
   14731    13089    13504 1
   14732     7424     9361 1
   14733     7732     7893 1
   14734     8419     9545 1
   14735     7294     9238 1
   14736    14852    15018 1
   14737     5708     5874 1
   14738    16008    16735 1
   14739     7293     7742 1
   14740    12957    13495 1
   14741      939      673 1
   14742    12426    12652 1
   14743     4790     4412 1
   14744     7738     9254 1
   14745     1146      627 1
   14746     2257     1852 1
   14747     5850     6422 1
   14748      686     1511 1
   14749    10226    11398 1
   14750    10110    11089 1
   14751    14662    14749 1
   14752    12668    13330 1
   14753     5676     6370 1
   14754     5802     7101 1
   14755    10068    10659 1
   14756     1048     1313 1
   14757     6433     7032 1
   14758    11984    14603 1
   14759    16592    16972 1
   14760     3315     3442 1
   14761    12031    12991 1
   14762     8852     9545 1
   14763     8848     9684 1
   14764    10272    11552 1
   14765     8542     9113 1
   14766    12091    13407 1
   14767    12487    12589 1
   14768     1810     2732 1
   14769     6554     7061 1
   14770      999     1046 1
   14771    12264    13462 1
   14772     3249     2635 1
   14773     2543     2612 1
   14774     4036     4472 1
   14775     5633     6480 1
   14776    13813    14535 1
   14777    15721    16627 1
   14778    13951    14012 1
   14779     2995     3302 1
   14780    13821    15214 1
   14781     5543     6843 1
   14782    13716    13853 1
   14783    14434    14931 1
   14784    14256    15402 1
   14785     7887     8234 1
   14786    14440    15250 1
   14787     7828     9640 1
   14788     2790     1895 1
   14789    12654    13270 1
   14790    11926    12073 1
   14791      789     1235 1
   14792    12012    13086 1
   14793    12872    13061 1
   14794     3675     5073 1
   14795    13761    14750 1
   14796     3056     3276 1
   14797    13697    14760 1
   14798    13701    15007 1
   14799     7007     7094 1
   14800     2426     2635 1
   14801     1099      835 1
   14802    10562    10872 1
   14803     7489     8818 1
   14804      778      260 1
   14805     1327      200 1
   14806      949      595 1
   14807     7748     8672 1
   14808     8578     9098 1
   14809     7498     9599 1
   14810    13937    15008 1
   14811     2978     3499 1
   14812    14631    15415 1
   14813      628     1454 1
   14814     7317     8184 1
   14815    16282    16449 1
   14816    15083    15108 1
   14817    11852    12293 1
   14818     5345    17072 1
   14819    14326    15171 1
   14820     1569     1322 1
   14821     3726     4490 1
   14822    10097    10775 1
   14823    10784    11530 1
   14824     3577     4311 1
   14825      926      579 1
   14826    11935    13115 1
   14827    11429    11658 1
   14828    11571    11710 1
   14829    10259    10859 1
   14830     9650     9838 1
   14831     3130     2657 1
   14832    12075    12895 1
   14833    15154    15295 1
   14834    10452    11269 1
   14835     5433     5878 1
   14836    11083    11765 1
   14837     8534     9933 1
   14838    14024    15249 1
   14839     2894     3558 1
   14840       18     1530 1
   14841     5487     7118 1
   14842      439      224 1
   14843    12535    13474 1
   14844     1164     1556 1
   14845    15435    16041 1
   14846     4652     4916 1
   14847    11057    11412 1
   14848     1222     1603 1
   14849    16834    16911 1
   14850    12216    12547 1
   14851     8877    10004 1
   14852     8185     8307 1
   14853     7932     9935 1
   14854    11063    11435 1
   14855     3268     4815 1
   14856      881     1371 1
   14857     4497     4547 1
   14858     9852     9892 1
   14859    15615    16760 1
   14860    10583    11477 1
   14861       93      318 1
   14862    11967    12906 1
   14863     4893     5146 1
   14864    16127    17088 1
   14865     6434     6633 1
   14866    13647    15199 1
   14867    14136    14901 1
   14868     8944     7359 1
   14869     1190     1220 1
   14870    15579    16004 1
   14871     3299     3559 1
   14872     5102     5226 1
   14873     7283     8312 1
   14874      720     1699 1
   14875    16032    16850 1
   14876      699     1269 1
   14877     3251     1836 1
   14878    16909    17187 1
   14879    10122    11653 1
   14880     4634    15666 1
   14881    13807    14737 1
   14882    10555    11581 1
   14883    14241    14999 1
   14884     6454     6890 1
   14885     3231     2557 1
   14886     8282     9498 1
   14887      702     1471 1
   14888     2903     3469 1
   14889    13742    14644 1
   14890     1945     2401 1
   14891    13022    13093 1
   14892     7561    10050 1
   14893     8634     9448 1
   14894      960      876 1
   14895    16515    17079 1
   14896     1727      466 1
   14897    11869    13011 1
   14898     1030      232 1
   14899    11904    12023 1
   14900    16381    16425 1
   14901     1255      616 1
   14902    14655    15042 1
   14903    13900    14720 1
   14904    10668    11410 1
   14905     1083      680 1
   14906    11917    12992 1
   14907     4733     4809 1
   14908     1218      253 1
   14909    11853    12314 1
   14910        8     1029 1
   14911    15464    16968 1
   14912     8884     9286 1
   14913     4555     5289 1
   14914    14065    14230 1
   14915     1019     1405 1
   14916     7850     9780 1
   14917     2190     1845 1
   14918     5478     6942 1
   14919     2170     2195 1
   14920     3417     2386 1
   14921     1076      292 1
   14922     8619     9445 1
   14923     7358     8452 1
   14924     8122     9124 1
   14925      748     1272 1
   14926     7176     9638 1
   14927     1571      288 1
   14928    11585    16245 1
   14929    10162    11743 1
   14930     2244     4665 1
   14931       44      922 1
   14932    16194    16459 1
   14933     5538     6137 1
   14934    10484    10899 1
   14935    14391    15289 1
   14936    10150    11579 1
   14937     9110     9592 1
   14938     8461     8577 1
   14939     7321     8469 1
   14940     7794     8000 1
   14941    12862    12935 1
   14942    10227    11373 1
   14943     8369     9602 1
   14944     8045     9169 1
   14945     3821     4229 1
   14946     4864     5044 1
   14947     4040     5290 1
   14948     5359     6617 1
   14949      738     1658 1
   14950    11979    17207 1
   14951    10153    10471 1
   14952     7788     9770 1
   14953     3784     4705 1
   14954    12716    13187 1
   14955    12556    12657 1
   14956    14104    14586 1
   14957     1737      193 1
   14958     6653     6837 1
   14959     9513     9812 1
   14960     5805     6649 1
   14961    16811    17170 1
   14962     7451     8633 1
   14963     8373     9326 1
   14964    16958    17025 1
   14965      102     1165 1
   14966      105      305 1
   14967     7230     7988 1
   14968    11592    11750 1
   14969     3359     2652 1
   14970    13717    14329 1
   14971    16196    16768 1
   14972     4969     5252 1
   14973    13009    13411 1
   14974    16025    16757 1
   14975    12377    13398 1
   14976     3899     4238 1
   14977     5444     5584 1
   14978    14586    14629 1
   14979    12936    13489 1
   14980    10076    10192 1
   14981     3371     1911 1
   14982    13974    14483 1
   14983    10201    11460 1
   14984    11962    13147 1
   14985    14050    14948 1
   14986    10618    10971 1
   14987     7350     9456 1
   14988       39      238 1
   14989    16488    16979 1
   14990    15454    15780 1
   14991    12146    12339 1
   14992    10556    11830 1
   14993    15488    16772 1
   14994    15456    16833 1
   14995      335      436 1
   14996     6794     6822 1
   14997     4717     5059 1
   14998    11580    11748 1
   14999    10128    11301 1
   15000    10662    11648 1
   15001    10613    11313 1
   15002      808      223 1
   15003     1816     1948 1
   15004     2227     2435 1
   15005    15996    16899 1
   15006    10498    10708 1
   15007     6057     7036 1
   15008    10171    11720 1
   15009     7637     9534 1
   15010    14493    15127 1
   15011    13546    13622 1
   15012     4233     5112 1
   15013     5773     6205 1
   15014     1038     1045 1
   15015     8070    10032 1
   15016    14389    14487 1
   15017    12189    13416 1
   15018     5756     6560 1
   15019    10127    11443 1
   15020     3007     3389 1
   15021      484      181 1
   15022    12243    12853 1
   15023     3665     5293 1
   15024    16333    17113 1
   15025     3093     2072 1
   15026     8636     8775 1
   15027    14337    15418 1
   15028    15587    16488 1
   15029     3891     4134 1
   15030    10346    11251 1
   15031    13787    14988 1
   15032    12839    12887 1
   15033    15844    16868 1
   15034     1653     1519 1
   15035     6123     6815 1
   15036    14920    15224 1
   15037    12517    13553 1
   15038     3145     1849 1
   15039     8354     9248 1
   15040    11890    13471 1
   15041    10353    11814 1
   15042     3687     5329 1
   15043     7624     8025 1
   15044     2933     2467 1
   15045      530     1318 1
   15046     3597     3776 1
   15047     4342     5342 1
   15048    13951    15079 1
   15049     8143     8440 1
   15050    15914    16392 1
   15051    12215    12909 1
   15052    10592    11647 1
   15053     5999     6057 1
   15054    16451    16841 1
   15055     4265     4656 1
   15056     8727     8787 1
   15057     1005      292 1
   15058     8050     8073 1
   15059     6117     7055 1
   15060     3690     4150 1
   15061     5549     7035 1
   15062     4181     4819 1
   15063     4703     4891 1
   15064      980      740 1
   15065     1441     1514 1
   15066    12606    13301 1
   15067    13663    14057 1
   15068     6413     6650 1
   15069    11880    13378 1
   15070     4610     4917 1
   15071    10590    11607 1
   15072     6860     6861 1
   15073    16536    16769 1
   15074      567      266 1
   15075     3910     5313 1
   15076     8335     9970 1
   15077    11322    11707 1
   15078    15902    16816 1
   15079    15914    16677 1
   15080     7551     7872 1
   15081    12953    13377 1
   15082    10906    11540 1
   15083     8973     8225 1
   15084    13879    14833 1
   15085     1231      577 1
   15086    12922    13395 1
   15087     7428     8740 1
   15088     8248     9356 1
   15089     6597     6772 1
   15090     5409     5804 1
   15091    13189    13422 1
   15092    15678    17008 1
   15093    14872    15339 1
   15094    12318    13615 1
   15095    12548    13623 1
   15096    12685    13086 1
   15097     4380     4604 1
   15098     7303     7549 1
   15099    14736    14978 1
   15100    15783    15811 1
   15101     1127     1298 1
   15102    16078    17081 1
   15103     3870     4340 1
   15104     3411     1809 1
   15105    10219    11350 1
   15106     5555     6816 1
   15107     8786     9327 1
   15108     7977    10007 1
   15109     3549     1613 1
   15110     7591     9390 1
   15111    16151    16774 1
   15112       48       51 1
   15113     2298     2432 1
   15114     1140     1205 1
   15115     5410     5820 1
   15116    14411    14976 1
   15117      123      219 1
   15118     8828     9940 1
   15119    16711    16978 1
   15120     3885     3968 1
   15121      759      654 1
   15122    15489    16044 1
   15123    12519    13195 1
   15124     8108     9414 1
   15125     5211     5299 1
   15126     4671     4914 1
   15127     3490    14890 1
   15128    14574    14626 1
   15129     4291     4913 1
   15130    10768    10922 1
   15131     9766     9781 1
   15132     8810     9347 1
   15133     4038     5057 1
   15134    12017    13163 1
   15135     5502     5691 1
   15136     4422     4587 1
   15137     4764     5085 1
   15138      578     1571 1
   15139     5066     5067 1
   15140    16591    16688 1
   15141     6682     6940 1
   15142     5608     7053 1
   15143    10058    11432 1
   15144     2480     2629 1
   15145    15963    16418 1
   15146     5979    12734 1
   15147     1026      278 1
   15148     8237     9485 1
   15149    12148    12616 1
   15150    10619    11420 1
   15151    12792    12809 1
   15152     4600     4851 1
   15153    12704    13157 1
   15154    12189    12493 1
   15155    10260    11715 1
   15156    10560    11169 1
   15157     5808     5892 1
   15158    16389    16766 1
   15159    11919    13438 1
   15160     4193    10947 1
   15161     7419     8205 1
   15162    14425    14465 1
   15163     8436     9108 1
   15164     9427     9548 1
   15165     3206     1865 1
   15166    14818    14890 1
   15167     1706     1384 1
   15168    12054    12515 1
   15169     7847     8085 1
   15170     1060     1286 1
   15171    14356    14599 1
   15172    13764    13783 1
   15173     7338     7907 1
   15174    10184    10242 1
   15175     3672     3987 1
   15176     5700     6739 1
   15177     4526    10237 1
   15178     4735     4431 1
   15179     2810     2345 1
   15180      254      255 1
   15181     9042     7312 1
   15182    15760    15891 1
   15183    14059    14309 1
   15184    16674    16935 1
   15185     1302     1786 1
   15186    10875    10888 1
   15187     8489     8750 1
   15188    10829    11440 1
   15189    12731    13476 1
   15190    15649    17028 1
   15191    10992    11128 1
   15192     9363     9502 1
   15193     6203     6827 1
   15194    15988    17176 1
   15195    15504    17198 1
   15196     2115     2469 1
   15197     8164    10050 1
   15198    16453    17017 1
   15199     7200     8736 1
   15200    16887    17216 1
   15201    11900    13242 1
   15202     1059      127 1
   15203     2835     3072 1
   15204    10660    11051 1
   15205    14455    14502 1
   15206     3773     4902 1
   15207     3473     2047 1
   15208     1720      358 1
   15209     5734     6064 1
   15210     3999     5183 1
   15211     7197     7204 1
   15212     3636     4187 1
   15213    14673    15013 1
   15214    14538    15083 1
   15215    12670    12751 1
   15216     4186     5131 1
   15217    14146    14502 1
   15218     4056     4116 1
   15219    16019    17116 1
   15220     7730     8674 1
   15221     7820     8759 1
   15222     9060     9761 1
   15223     3018     2467 1
   15224     7735     8039 1
   15225     1029     1458 1
   15226     4365     5052 1
   15227     1810     1816 1
   15228    12415    12810 1
   15229    13453    14299 1
   15230    12572    12914 1
   15231     4421     4970 1
   15232    15571    16426 1
   15233     5197     5264 1
   15234    13890    13966 1
   15235    12998    13381 1
   15236      784      601 1
   15237     9541     9877 1
   15238    15913    16229 1
   15239     1203     1762 1
   15240    12642    13047 1
   15241    12212    13602 1
   15242    13696    14898 1
   15243     5587     6570 1
   15244     8047     9752 1
   15245     8982     8790 1
   15246    14632    15272 1
   15247     5634     6712 1
   15248     3027     2269 1
   15249     4360     4784 1
   15250     2960     2473 1
   15251     1009      212 1
   15252    10168    11375 1
   15253    11886    13424 1
   15254    11399    11631 1
   15255     2149     1876 1
   15256     4138     4830 1
   15257     9220     9412 1
   15258     2807     2895 1
   15259    13141    13525 1
   15260     8811     9388 1
   15261     7817     8470 1
   15262     2495     2599 1
   15263    10785    11128 1
   15264     8999     1854 1
   15265    10693    11522 1
   15266    14480    14797 1
   15267     6098     6681 1
   15268    10948    11185 1
   15269     5735     6848 1
   15270    10568    11689 1
   15271     5986     6267 1
   15272     1070      556 1
   15273      924      424 1
   15274    10212    11307 1
   15275     6804     6999 1
   15276     3697     4637 1
   15277    11283    11366 1
   15278     7392     9440 1
   15279     2793     2183 1
   15280    13646    15042 1
   15281     6158     6765 1
   15282     1065     1069 1
   15283     6002     6213 1
   15284     7691     8827 1
   15285    13902    14296 1
   15286    10126    11042 1
   15287    12185    12434 1
   15288     3602     4442 1
   15289     4400     5248 1
   15290    16402    17074 1
   15291    10460    10870 1
   15292     5744     5928 1
   15293      888     1526 1
   15294    13704    14788 1
   15295     4101     5290 1
   15296    10466    11058 1
   15297     7656    10019 1
   15298     4248     4927 1
   15299     2771     3092 1
   15300     1570     1496 1
   15301     8218     9195 1
   15302    10098    11632 1
   15303     3141      291 1
   15304       36     1657 1
   15305    12228    13256 1
   15306       51      883 1
   15307    11916    13233 1
   15308    15582    16786 1
   15309    13728    14794 1
   15310     5429     6185 1
   15311     3045     2342 1
   15312     6330     7115 1
   15313     2194     2534 1
   15314    14855    15302 1
   15315     7822     8405 1
   15316     6683    13126 1
   15317     6344     6683 1
   15318     3238     2411 1
   15319     4356     4602 1
   15320     2927     3204 1
   15321    10588    11328 1
   15322    13653    13659 1
   15323     1237     1621 1
   15324     9067     9686 1
   15325     2818     3160 1
   15326     8318     9663 1
   15327     8709    10036 1
   15328    10187    10841 1
   15329    15178    15384 1
   15330    12202    13525 1
   15331     8088     9971 1
   15332    10472    11647 1
   15333     6536     6652 1
   15334    15488    15606 1
   15335     8043     8710 1
   15336     1687      247 1
   15337     9134    11071 1
   15338     3190     1801 1
   15339    14693    15181 1
   15340     8189     9572 1
   15341    14134    15422 1
   15342    11175    11734 1
   15343     5532     7046 1
   15344     6411     7148 1
   15345    15598    16855 1
   15346      897      404 1
   15347     1497      337 1
   15348    15641    15789 1
   15349    16707    17020 1
   15350    12487    13350 1
   15351    10562    10891 1
   15352     8075     9840 1
   15353    13859    14806 1
   15354     8809     9513 1
   15355    11896    13598 1
   15356    10439    11611 1
   15357     5980     7080 1
   15358     7399    10027 1
   15359    15654    16039 1
   15360    11184    11293 1
   15361     3819     4503 1
   15362     4375     5301 1
   15363     8329     9878 1
   15364     8230     9389 1
   15365    12373    13254 1
   15366    15845    17030 1
   15367    10226    10267 1
   15368      303      329 1
   15369    15631    15890 1
   15370    10743    11838 1
   15371    14222    14334 1
   15372    15659    16462 1
   15373    10693    10996 1
   15374    10506    11639 1
   15375    15613    16231 1
   15376    11043    11794 1
   15377    12587    13337 1
   15378     3722     5064 1
   15379     4327     5267 1
   15380    15996    16860 1
   15381    10185    11723 1
   15382     3719     4592 1
   15383     3552     2409 1
   15384    16325    17171 1
   15385     8874     9179 1
   15386     2147     2296 1
   15387    15986    16155 1
   15388     2007     2590 1
   15389     3864     4574 1
   15390     4011     5292 1
   15391     8800     9774 1
   15392    10262    11707 1
   15393     7875     8505 1
   15394     7781     9544 1
   15395    15551    17062 1
   15396    10656    11312 1
   15397     4970     5075 1
   15398     3394     2542 1
   15399    13148    13342 1
   15400    15755    17196 1
   15401     6137     6701 1
   15402     2950     1956 1
   15403    14401    15424 1
   15404      934      246 1
   15405      969     1634 1
   15406       30     1622 1
   15407      497      568 1
   15408      800     1670 1
   15409     2839     1944 1
   15410     6187     7044 1
   15411    10735    11474 1
   15412     2844     2226 1
   15413     5562     6626 1
   15414    10097    10866 1
   15415     4532     5083 1
   15416     3841     4958 1
   15417     9243     9668 1
   15418     8466     8535 1
   15419     1149      683 1
   15420     5946     6170 1
   15421      903     1446 1
   15422    13383    13541 1
   15423     3509     1841 1
   15424    14161    14957 1
   15425    10446    10517 1
   15426     6447     6986 1
   15427     1680      171 1
   15428    10463    10889 1
   15429     4528     4905 1
   15430     5462     6527 1
   15431     3506     2015 1
   15432    16603    17085 1
   15433    10682    11507 1
   15434     1104     1333 1
   15435    10386    10570 1
   15436    13066    13620 1
   15437     5674     5911 1
   15438     9432     9956 1
   15439     5407     5863 1
   15440     5571     7038 1
   15441    12971    13347 1
   15442     1475      164 1
   15443     6730    11653 1
   15444     7543     9567 1
   15445     1812     2738 1
   15446    14342    15006 1
   15447     3133     2057 1
   15448    11979    12512 1
   15449    11218    11607 1
   15450     3197     2336 1
   15451    15331    15380 1
   15452    15682    16444 1
   15453     8705     9273 1
   15454    12188    12578 1
   15455    14617    15144 1
   15456     8616     9805 1
   15457    16092    16974 1
   15458    14189    14899 1
   15459     5616     6372 1
   15460     1283      363 1
   15461     3421     1951 1
   15462    16387    16951 1
   15463     7268    10005 1
   15464    10803    11540 1
   15465     3499     2405 1
   15466     9541    10026 1
   15467     4245     4480 1
   15468    14094    14946 1
   15469     4348     4507 1
   15470    12788    12812 1
   15471     8626     9350 1
   15472     9120     9639 1
   15473      504      147 1
   15474      967     1764 1
   15475     2954     3420 1
   15476     5094     5146 1
   15477     2828     1817 1
   15478    12215    13191 1
   15479    15747    15806 1
   15480    15860    16980 1
   15481     7324     9133 1
   15482     3413     2651 1
   15483    15889    16726 1
   15484    12240    12902 1
   15485    10213    10421 1
   15486    16491    16695 1
   15487     3061     2216 1
   15488    14126    14341 1
   15489    15936    16697 1
   15490     8030     9814 1
   15491     3381     2321 1
   15492     4164     5074 1
   15493    16008    16613 1
   15494    10101    11042 1
   15495     9568     9714 1
   15496    14505    14724 1
   15497     8592     9960 1
   15498     3657     5058 1
   15499     6319     7016 1
   15500     2289     2701 1
   15501     9344     9662 1
   15502     7328     8086 1
   15503    14187    14918 1
   15504    12148    13262 1
   15505    10645    10758 1
   15506    12520    13054 1
   15507    12224    13594 1
   15508    12078    12795 1
   15509     5748     7117 1
   15510     3828     4967 1
   15511     8559     9690 1
   15512     1224     1776 1
   15513     7722     9990 1
   15514    13995    14716 1
   15515    14216    14432 1
   15516     4581     4854 1
   15517     6159     6567 1
   15518    15553    17020 1
   15519    14354    14902 1
   15520     8522     9805 1
   15521    15838    16948 1
   15522     3928     3954 1
   15523     1944    15245 1
   15524     6368     6747 1
   15525     2157     2064 1
   15526     6203     6521 1
   15527    12093    12900 1
   15528     1201      107 1
   15529     2958     2959 1
   15530     1715     1776 1
   15531    14840    15138 1
   15532    10799    11592 1
   15533     7843     9308 1
   15534    15970    16483 1
   15535    10618    10890 1
   15536    11362    11445 1
   15537     8388     8542 1
   15538     4305     4701 1
   15539     4275     4415 1
   15540     2774     2401 1
   15541     8401     8723 1
   15542    13645    14087 1
   15543     1806     1911 1
   15544    16076    16530 1
   15545     6618     9832 1
   15546     5455     5738 1
   15547     8235     9170 1
   15548    16464    16723 1
   15549    11977    12191 1
   15550      829     1678 1
   15551     6267     6895 1
   15552     2065     2590 1
   15553     5418     5625 1
   15554    12960    13031 1
   15555    15548    16139 1
   15556    14573    14933 1
   15557     4692     5087 1
   15558    15433    16389 1
   15559     6214     6235 1
   15560    10204    11367 1
   15561     1119     1683 1
   15562    11156    11747 1
   15563    11848    11927 1
   15564     7658     7797 1
   15565    11144    11193 1
   15566     2914     2129 1
   15567     8404     9288 1
   15568    14013    14198 1
   15569    10147    11326 1
   15570     6197     6577 1
   15571    12338    13050 1
   15572    16479    16955 1
   15573      811      538 1
   15574    14081    15012 1
   15575     8962     7305 1
   15576     2893     2285 1
   15577    14347    14742 1
   15578     3181     3468 1
   15579     2894     2304 1
   15580     4922     4964 1
   15581     3492     2692 1
   15582    12149    12840 1
   15583    10498    11786 1
   15584    15767    17224 1
   15585    15670    16804 1
   15586     3991     4884 1
   15587    11928    13074 1
   15588    11194    11259 1
   15589      933     1478 1
   15590    14461    15304 1
   15591     3270     1868 1
   15592     7477     9421 1
   15593     7542     8700 1
   15594    15493    15901 1
   15595     7382     8327 1
   15596    12865    12953 1
   15597     5576     5693 1
   15598      528     1425 1
   15599      565     1673 1
   15600     5417     5765 1
   15601    11334    11640 1
   15602     4171     5347 1
   15603     5372     6769 1
   15604    11499    11525 1
   15605     6196     6265 1
   15606     8849     9825 1
   15607     7220     9655 1
   15608     5996     6308 1
   15609    16756    17123 1
   15610    10830    11242 1
   15611    10792    11168 1
   15612     8154     9221 1
   15613     4017     4933 1
   15614     5828     5901 1
   15615     3097     1811 1
   15616     3998     4006 1
   15617     2946     2641 1
   15618     7770     9518 1
   15619    11000    11103 1
   15620    12317    12650 1
   15621    10186    10787 1
   15622    16395    16720 1
   15623    11197    11471 1
   15624    15934    17222 1
   15625     5573     6368 1
   15626    11002    11573 1
   15627    10988    11194 1
   15628     7952     9519 1
   15629     2900    13699 1
   15630     4696     5099 1
   15631    14350    15092 1
   15632    12251    17191 1
   15633    15875    15906 1
   15634     8799     9531 1
   15635    16208    16368 1
   15636    15671    16248 1
   15637     7543     9886 1
   15638    12160    12168 1
   15639     5870     6196 1
   15640    11943    12979 1
   15641     2530     2730 1
   15642    10868    11480 1
   15643     2872     2923 1
   15644    10215    10673 1
   15645     4305     4447 1
   15646        5     1055 1
   15647     2836     2230 1
   15648    15726    17198 1
   15649    12331    12681 1
   15650    12856    16859 1
   15651     3635     3752 1
   15652     3749     4529 1
   15653    10883    11729 1
   15654     5606     6020 1
   15655      773     1188 1
   15656     6529     6932 1
   15657    12237    13193 1
   15658    12630    12996 1
   15659     3811    16170 1
   15660     7521     8534 1
   15661     5823     6457 1
   15662      821      834 1
   15663    10288    10883 1
   15664     8221    10042 1
   15665    10395    10999 1
   15666     6399     6476 1
   15667     7467     8138 1
   15668    16066    16112 1
   15669     2823     1938 1
   15670    10441    11060 1
   15671    10909    11668 1
   15672    12610    13078 1
   15673    13664    15320 1
   15674    10518    11326 1
   15675    14039    14384 1
   15676    12529    12542 1
   15677     9027     9842 1
   15678    12355    12493 1
   15679     5600    12903 1
   15680     3740     5204 1
   15681     8158     9808 1
   15682    15769    16023 1
   15683     6205    11126 1
   15684     6115     6280 1
   15685    10265    10311 1
   15686    14297    15310 1
   15687    12583    13035 1
   15688    15156    15188 1
   15689     4653     5123 1
   15690    12085    13502 1
   15691     3101     3285 1
   15692       41      476 1
   15693     8841     9640 1
   15694     8765     9932 1
   15695    13668    15298 1
   15696     5505     7095 1
   15697    12281    12467 1
   15698    14209    14817 1
   15699    10465    11032 1
   15700    12410    13423 1
   15701     1316     1501 1
   15702     6088     6434 1
   15703     3864     4824 1
   15704    15599    16837 1
   15705     5385     5431 1
   15706       97     1509 1
   15707    14880    15426 1
   15708    16097    16634 1
   15709     5836     6309 1
   15710    11960    12416 1
   15711    13636    15200 1
   15712     2829     3241 1
   15713     1315      150 1
   15714     9105     9507 1
   15715    16165    16561 1
   15716    12559    13113 1
   15717      923     1273 1
   15718     8965     8675 1
   15719    12519    12711 1
   15720    10206    10629 1
   15721     7610     9922 1
   15722    11479    11802 1
   15723    16554    16701 1
   15724    16691    16706 1
   15725     5680     6748 1
   15726     6647     7010 1
   15727    13765    14363 1
   15728     3091     3538 1
   15729     4811     5191 1
   15730     8717     9174 1
   15731     3119     1837 1
   15732      842      330 1
   15733     6573     6882 1
   15734     3631     5325 1
   15735      874      530 1
   15736     8899     8855 1
   15737     2869     3407 1
   15738     8664     9577 1
   15739    13856    14846 1
   15740    11068    11237 1
   15741    14079    14270 1
   15742    11643    11812 1
   15743     8524     9084 1
   15744     3708     4598 1
   15745     3979     5073 1
   15746    15870    16084 1
   15747    15227    15396 1
   15748     5610     6557 1
   15749    16196    16885 1
   15750    11875    13526 1
   15751     7298     9643 1
   15752     1588     1488 1
   15753     5772     6330 1
   15754     3630     4498 1
   15755     3406     2069 1
   15756     1252     1771 1
   15757    10396    11667 1
   15758      391      462 1
   15759    12163    12221 1
   15760     6186     6852 1
   15761    12569    12624 1
   15762    15627    16450 1
   15763    15830    16282 1
   15764      708      494 1
   15765     4155     4676 1
   15766     3607     4440 1
   15767    15175    15335 1
   15768    16006    16018 1
   15769      423      453 1
   15770    14744    15087 1
   15771     7928     9503 1
   15772    10715    11731 1
   15773     9353     9664 1
   15774     7221     8679 1
   15775      102     1141 1
   15776     5374     6151 1
   15777     1021     1688 1
   15778    14009    15397 1
   15779    13444    15004 1
   15780     7259     9393 1
   15781    12599    13136 1
   15782    16663    16933 1
   15783     4309     4890 1
   15784    16306    16427 1
   15785    13732    13936 1
   15786     3041     3056 1
   15787     1830     2701 1
   15788     6627     6964 1
   15789     4508     4588 1
   15790    15500    16683 1
   15791     7493     8825 1
   15792     5492     5512 1
   15793    11515    11772 1
   15794    12112    13309 1
   15795     7341     8330 1
   15796     1084     5599 1
   15797     5554     7105 1
   15798     5802     6736 1
   15799     6741     7071 1
   15800      676     2478 1
   15801     9817    15409 1
   15802     8096     8545 1
   15803     8956     7171 1
   15804    10933    11830 1
   15805    12755    12956 1
   15806    16453    17124 1
   15807     4741     4523 1
   15808     5649     6925 1
   15809     6380     6678 1
   15810     6038     6795 1
   15811     3093     2250 1
   15812     3494     2077 1
   15813     6208     6835 1
   15814    11268    11827 1
   15815     6692     6840 1
   15816     2488     4586 1
   15817     5504     5857 1
   15818     4274     4464 1
   15819     5856     6635 1
   15820    13114    13427 1
   15821       61      667 1
   15822    12201    12339 1
   15823     8222     9982 1
   15824    12896    13147 1
   15825     5499     6656 1
   15826     5917     6684 1
   15827    16697    16910 1
   15828     7193     8555 1
   15829     6420     6623 1
   15830     4196     5176 1
   15831    16088    16483 1
   15832     4402     5065 1
   15833     5428     5834 1
   15834    16243    16312 1
   15835    11001    11311 1
   15836     1300      578 1
   15837    13137    13628 1
   15838     2836     2544 1
   15839     8093     9684 1
   15840     5721     6082 1
   15841    14369    14954 1
   15842    10120    10908 1
   15843    10281    11502 1
   15844       47     1628 1
   15845    10490    11778 1
   15846    11304    17140 1
   15847     2817     3032 1
   15848    10635    11159 1
   15849    15733    16431 1
   15850       66      447 1
   15851      615      269 1
   15852     9566     9992 1
   15853     1032     1219 1
   15854    15815    17186 1
   15855     8960     7850 1
   15856    14323    14945 1
   15857      654      372 1
   15858    11261    11321 1
   15859    15853    16775 1
   15860     8083    10029 1
   15861     8060     8251 1
   15862    14342    15053 1
   15863     4385     5341 1
   15864     2264     2110 1
   15865    10136    10869 1
   15866    13670    14940 1
   15867    10729    11542 1
   15868    13113    13335 1
   15869     3780     4662 1
   15870    15626    17073 1
   15871     4849     5133 1
   15872     3847     4781 1
   15873     6216     6949 1
   15874    12454    13200 1
   15875     4267     5096 1
   15876     4622     5281 1
   15877     6188     6270 1
   15878     1138     1717 1
   15879     9115     9899 1
   15880    13824    14142 1
   15881     2972     2555 1
   15882    16430    17000 1
   15883     1142     1735 1
   15884     8713     9473 1
   15885     6400     6706 1
   15886     7176     9472 1
   15887     7979     9518 1
   15888     3113     2312 1
   15889    13636    14203 1
   15890    12370    13267 1
   15891     3565     2487 1
   15892     1212      676 1
   15893     6011     6785 1
   15894     6103     6432 1
   15895    10549    11514 1
   15896     7873     9251 1
   15897    10775    11208 1
   15898    12400    12741 1
   15899    11075    11739 1
   15900     1269     1655 1
   15901    10193    11206 1
   15902     2785     3224 1
   15903    14870    15356 1
   15904    15800    16080 1
   15905     3427     2036 1
   15906    14259    14905 1
   15907    16786    17051 1
   15908     7185     8025 1
   15909    11328    11614 1
   15910     8508     9288 1
   15911     9380     9910 1
   15912     8364     9811 1
   15913    16144    17081 1
   15914     6524     6982 1
   15915    14814    15219 1
   15916     7875     9878 1
   15917    11200    11227 1
   15918    12587    12912 1
   15919     5916     6389 1
   15920     7777     8201 1
   15921     7487     8445 1
   15922     2326     1965 1
   15923    13972    15251 1
   15924     1826     2425 1
   15925     7911    11148 1
   15926     8873     7788 1
   15927     5424     5834 1
   15928    15799    16639 1
   15929    10615    11172 1
   15930    15544    16195 1
   15931     7296     9599 1
   15932    11050    11831 1
   15933     3312     3483 1
   15934     4630     5244 1
   15935     4494     5048 1
   15936     2942     3323 1
   15937     8709     8801 1
   15938     7246     9378 1
   15939    10268    10416 1
   15940    15603    16348 1
   15941     3974     4811 1
   15942     3129     2130 1
   15943    10842    11143 1
   15944     2952     2392 1
   15945     2276     2052 1
   15946      775      592 1
   15947     1135      126 1
   15948     3044     1971 1
   15949    13863    14630 1
   15950    11340    11404 1
   15951     7364     7699 1
   15952     2910     1887 1
   15953    13070    13343 1
   15954     9287     9936 1
   15955     8842     9440 1
   15956     2754     2933 1
   15957    16886    17129 1
   15958     9081     9716 1
   15959     9230     9760 1
   15960     6047     6690 1
   15961    10884    10964 1
   15962     7652     8060 1
   15963     6050     6670 1
   15964    10229    11103 1
   15965     3478     2168 1
   15966    10398    11186 1
   15967     8662     8699 1
   15968    10409    10438 1
   15969     5793     6664 1
   15970    12548    12978 1
   15971      461      204 1
   15972     3331     2361 1
   15973     8034     9465 1
   15974     4661     4712 1
   15975     4348     4992 1
   15976     2316     2053 1
   15977    14592    15350 1
   15978    12942    13538 1
   15979     6230     6938 1
   15980     4728     5246 1
   15981     2984     2567 1
   15982     1155     1676 1
   15983     1625      435 1
   15984    13704    15322 1
   15985    13542    14730 1
   15986     2292     1944 1
   15987     1024     1525 1
   15988     8048     8228 1
   15989    12169    13026 1
   15990    14760    14889 1
   15991      787     1154 1
   15992     7336     9496 1
   15993     3800     4182 1
   15994     1432      415 1
   15995     8147     8456 1
   15996     8397     8592 1
   15997     9043     7262 1
   15998     4038     5355 1
   15999    12673    13483 1
   16000     7557     8367 1
   16001     8639     9720 1
   16002    16533    17131 1
   16003    12806    13673 1
   16004    10392    11387 1
   16005    11880    12030 1
   16006    11755    11833 1
   16007    10433    11112 1
   16008     5739     6418 1
   16009    13682    14924 1
   16010    10150    10838 1
   16011     3846     4446 1
   16012    16152    16544 1
   16013      619     1564 1
   16014    13757    15262 1
   16015     9063     9926 1
   16016    14111    15111 1
   16017     1297      221 1
   16018    11198    11540 1
   16019      989      666 1
   16020    15957    17154 1
   16021     2975     3298 1
   16022    12448    12626 1
   16023     2995     8315 1
   16024     7814     9604 1
   16025     8869     8032 1
   16026     8927     7764 1
   16027     8862     7486 1
   16028    10256    10384 1
   16029    16870    16993 1
   16030      992     1416 1
   16031    15697    16515 1
   16032      154     5371 1
   16033     4151     4162 1
   16034     6034     6662 1
   16035     8579     9176 1
   16036     7366     8257 1
   16037       28      872 1
   16038     3705     5242 1
   16039     9241     9581 1
   16040     5894     6345 1
   16041    14560    15112 1
   16042     2330     1869 1
   16043     8712     9849 1
   16044    10375    10411 1
   16045     5501     6624 1
   16046     4162     4436 1
   16047    14084    14133 1
   16048    11965    13026 1
   16049     8428    10032 1
   16050    12482    13521 1
   16051     5499     6194 1
   16052      608     1731 1
   16053    11429    11757 1
   16054     2918     2684 1
   16055      726     1404 1
   16056    10448    10515 1
   16057     3826     4792 1
   16058     4718     5245 1
   16059     3767     3993 1
   16060    11927    12923 1
   16061     1507      468 1
   16062    16110    16953 1
   16063    11906    12511 1
   16064     5206    11825 1
   16065     2190     2596 1
   16066    10521    11538 1
   16067    14074    15255 1
   16068     8993     9652 1
   16069    16549    16953 1
   16070     2325     2352 1
   16071      950      747 1
   16072    16362    16979 1
   16073     6239     6735 1
   16074     3838     4428 1
   16075     3639     4425 1
   16076    10663    11298 1
   16077     6254     6491 1
   16078     5612     6026 1
   16079     1346      480 1
   16080     3129     2582 1
   16081     4275     4990 1
   16082    13184    13412 1
   16083    10145    11428 1
   16084    15669    17096 1
   16085     8090     9193 1
   16086    11874    12046 1
   16087    11767    11831 1
   16088    14459    15385 1
   16089    13640    14566 1
   16090     6081     6756 1
   16091     2885     2635 1
   16092    15534    16758 1
   16093     8100     9117 1
   16094     4401     4481 1
   16095    15794    16662 1
   16096     6221     6483 1
   16097     5789     7042 1
   16098     5862     6893 1
   16099     7348     7956 1
   16100    11271    11335 1
   16101     3511     1452 1
   16102    12769    13362 1
   16103     8963     7965 1
   16104     7903     9850 1
   16105     7279     9731 1
   16106     1535     1663 1
   16107    11895    13577 1
   16108    16048    16847 1
   16109     4852     4873 1
   16110     6230     6707 1
   16111    10822    11797 1
   16112    16115    16583 1
   16113     4711     5289 1
   16114     6135     6296 1
   16115     5196     5218 1
   16116     9904    10033 1
   16117    13094    13615 1
   16118     6522     6551 1
   16119    11851    12452 1
   16120     6301     6778 1
   16121    16186    17146 1
   16122    11926    13329 1
   16123     8058     9745 1
   16124    14182    14756 1
   16125     8203     9118 1
   16126     3706     4993 1
   16127     7267     7391 1
   16128     3305     3337 1
   16129     7374     7385 1
   16130    12106    13529 1
   16131     3816     5069 1
   16132    12171    14398 1
   16133    13971    14582 1
   16134     2197     2751 1
   16135    13318    13593 1
   16136     7657     8440 1
   16137     5588     6800 1
   16138      829      234 1
   16139    10686    11249 1
   16140     3658     3796 1
   16141     3673     4511 1
   16142    11972    13199 1
   16143     4033     4244 1
   16144     8907     7878 1
   16145     6853     7050 1
   16146     5695     6100 1
   16147    10683    11496 1
   16148    10704    11363 1
   16149      946      340 1
   16150     8542     9917 1
   16151     4296     4568 1
   16152    12092    13037 1
   16153     3157     2734 1
   16154     4660    16230 1
   16155     9072     9481 1
   16156    15715    17004 1
   16157     7822     9140 1
   16158    16651    17102 1
   16159     7758     8323 1
   16160     3049     2159 1
   16161     6207     6282 1
   16162     4689     5235 1
   16163     5794     6915 1
   16164      946     1621 1
   16165    12294    13140 1
   16166     3864     5280 1
   16167    11056    11611 1
   16168    12770    12848 1
   16169     7650     9394 1
   16170     3812     5210 1
   16171     7922     8651 1
   16172    15702    15936 1
   16173    16146    16794 1
   16174    10755    11322 1
   16175    12107    12656 1
   16176    14150    14906 1
   16177    10270    11201 1
   16178     8386     9846 1
   16179     4200     5026 1
   16180     8081     9312 1
   16181    11987    12337 1
   16182    12604    13449 1
   16183    14319    14719 1
   16184     2813     2566 1
   16185     8661     8722 1
   16186    12183    13629 1
   16187     6561     6707 1
   16188    15870    16808 1
   16189    16131    16704 1
   16190     7426     8846 1
   16191    15597    17120 1
   16192     7201     7261 1
   16193    15791    16371 1
   16194    10235    10597 1
   16195     3424     1983 1
   16196     3905     4262 1
   16197    15824    17040 1
   16198     8290     9609 1
   16199    15614    16694 1
   16200     5383     6675 1
   16201    12147    12470 1
   16202    11872    13239 1
   16203    12326    12801 1
   16204     7662     7793 1
   16205     4675     5178 1
   16206     3726     4379 1
   16207    14908    15291 1
   16208    11073    11457 1
   16209    15961    16371 1
   16210    11426    11507 1
   16211    11066    11467 1
   16212     5428     6289 1
   16213    10264    10728 1
   16214     8977     8570 1
   16215     8224     9716 1
   16216    12837    13451 1
   16217      838      507 1
   16218    12303    12414 1
   16219     5861     6741 1
   16220    13769    14292 1
   16221    10757    11592 1
   16222    15562    16459 1
   16223    11253    11726 1
   16224     3153     2027 1
   16225      808      281 1
   16226     2995     2570 1
   16227    15163    15333 1
   16228     2602     2614 1
   16229    15572    16134 1
   16230    12061    13078 1
   16231     5660     6824 1
   16232    13711    13817 1
   16233    14584    15401 1
   16234    15062    15208 1
   16235      936     1473 1
   16236    15710    15760 1
   16237       47     1160 1
   16238     7190     7352 1
   16239     4017     4625 1
   16240     7507     7717 1
   16241    10157    11195 1
   16242     6569    10733 1
   16243     8993     7786 1
   16244     5058     5120 1
   16245     7225     7462 1
   16246    11854    13087 1
   16247    11290    11798 1
   16248     2919     1911 1
   16249     1306     1499 1
   16250    14045    14630 1
   16251    12587    14457 1
   16252      367      159 1
   16253       25     1405 1
   16254     3978     5117 1
   16255     5403     5429 1
   16256    15033    15273 1
   16257     9011     7475 1
   16258     3613     3811 1
   16259    10128    11737 1
   16260     6212     6896 1
   16261    10132    10931 1
   16262    12615    13083 1
   16263    14446    14562 1
   16264    15868    17156 1
   16265     3138     1890 1
   16266     3195     1984 1
   16267    13726    15135 1
   16268      121      204 1
   16269     3617     5151 1
   16270    12136    13092 1
   16271     5569     6266 1
   16272     1718      468 1
   16273    13737    13937 1
   16274    13932    14853 1
   16275    14704    15110 1
   16276     3954     4787 1
   16277    10700    11153 1
   16278    12089    12424 1
   16279     1986     1817 1
   16280    15732    16856 1
   16281     7338     7892 1
   16282    13657    14950 1
   16283     2904     2424 1
   16284    12154    12719 1
   16285     7382     8500 1
   16286     7901     8697 1
   16287     1134      208 1
   16288    10474    11394 1
   16289    10347    11761 1
   16290    10159    10915 1
   16291     3507     1876 1
   16292    14291    15316 1
   16293     3037     3559 1
   16294     9580     9729 1
   16295    14656    15368 1
   16296     4128     4890 1
   16297    12047    12477 1
   16298     2913     3288 1
   16299    15680    16113 1
   16300    11196    11788 1
   16301    12878    12956 1
   16302    12891    13553 1
   16303    14011    14203 1
   16304     9333     9566 1
   16305     3907     4313 1
   16306     2243     1838 1
   16307     3187     2250 1
   16308    13840    15308 1
   16309    12534    13325 1
   16310     7211     7443 1
   16311     6274     6476 1
   16312    10481    10610 1
   16313     2778     2388 1
   16314     4688     5222 1
   16315     2878     2438 1
   16316     1350      155 1
   16317     3999     4662 1
   16318    16507    17024 1
   16319     5705     6094 1
   16320     1925     4537 1
   16321     4805     4456 1
   16322      807      153 1
   16323    14305    14574 1
   16324     9035     7410 1
   16325    16768    17011 1
   16326     1363     1783 1
   16327    14194    14471 1
   16328    11965    12392 1
   16329     7900     9649 1
   16330    11535    11718 1
   16331     7227     7780 1
   16332     5635     6570 1
   16333    14017    15117 1
   16334    15696    16045 1
   16335    11210    11590 1
   16336    10172    11629 1
   16337     7904     7989 1
   16338    16370    16792 1
   16339    11007    11424 1
   16340     7315     7711 1
   16341    10174    10504 1
   16342     7181     9479 1
   16343     9037     8294 1
   16344     8475     9252 1
   16345    15791    15942 1
   16346     5588     6814 1
   16347    11077    11681 1
   16348    15717    16925 1
   16349     7658     8563 1
   16350     4392     4405 1
   16351     9494     9914 1
   16352    10542    11116 1
   16353     6072     6227 1
   16354    10885    11618 1
   16355    12308    13569 1
   16356     7854     9870 1
   16357     4479     4923 1
   16358    11864    11870 1
   16359    12572    12908 1
   16360    12459    13396 1
   16361     1803     2573 1
   16362    15670    16931 1
   16363    13233    13621 1
   16364    11979    12867 1
   16365    13931    15230 1
   16366     3917     4307 1
   16367    10251    11400 1
   16368     3808     5254 1
   16369    10425    11298 1
   16370     7273     9722 1
   16371    16833    16937 1
   16372    13962    14059 1
   16373    10426    10704 1
   16374    14373    14616 1
   16375     7681     7951 1
   16376    16242    16749 1
   16377     5464     5830 1
   16378     7185     8664 1
   16379    15509    16345 1
   16380    13920    15032 1
   16381     3223     3285 1
   16382     9477     9478 1
   16383     8166     9954 1
   16384     8837     9954 1
   16385     3981     4548 1
   16386    10083    10925 1
   16387     2777     3562 1
   16388    10505    10694 1
   16389     7259     8573 1
   16390     1097      598 1
   16391    12142    13604 1
   16392    10785    11122 1
   16393    10752    10847 1
   16394    16137    16918 1
   16395    12442    12627 1
   16396     3194     2266 1
   16397     8482     9088 1
   16398     8731     9751 1
   16399    16165    16307 1
   16400    14723    15203 1
   16401    13741    13941 1
   16402     3795     4376 1
   16403     3965     5183 1
   16404    11995    12585 1
   16405     5535     6387 1
   16406    16761    16986 1
   16407     2952     2013 1
   16408     1075      163 1
   16409    10522    10923 1
   16410    12503    13384 1
   16411    10187    10401 1
   16412    16625    16947 1
   16413     4328     4460 1
   16414    12803    13054 1
   16415     1281      597 1
   16416    10291    11659 1
   16417    13923    16792 1
   16418    13107    13148 1
   16419    11960    13511 1
   16420     5413     5868 1
   16421    12012    12458 1
   16422    15527    16571 1
   16423    14686    14940 1
   16424     8302     9573 1
   16425    12111    12333 1
   16426    12064    13366 1
   16427    11009    11570 1
   16428    10112    11452 1
   16429     6574     6675 1
   16430     8216     8334 1
   16431     1120     1246 1
   16432     3102     2521 1
   16433     7713     8400 1
   16434     6711     6754 1
   16435    10900    11609 1
   16436    10302    10525 1
   16437     4812     5028 1
   16438    16852    17054 1
   16439     7263     8631 1
   16440    11198    11427 1
   16441     6116     6137 1
   16442    13750    14396 1
   16443     1723      169 1
   16444     6127     7152 1
   16445      395      277 1
   16446     8576     9563 1
   16447    12103    13351 1
   16448       48      194 1
   16449     3927     5122 1
   16450     4451     5205 1
   16451     2363     2705 1
   16452     3256     2640 1
   16453     9181     9912 1
   16454     2941     2335 1
   16455    12805    13429 1
   16456     3282     2233 1
   16457     7579     7789 1
   16458    10225    11731 1
   16459    11114    11313 1
   16460    11006    11222 1
   16461     6235     6709 1
   16462     9074     9171 1
   16463     7502     8668 1
   16464    10086    10256 1
   16465    17147    17211 1
   16466     7879     7921 1
   16467    15515    16214 1
   16468     5917     6206 1
   16469     9260     9587 1
   16470     8126    10033 1
   16471     3738     4699 1
   16472    10220    11364 1
   16473     1448     1467 1
   16474    14058    14727 1
   16475     7662     9372 1
   16476     7157     8218 1
   16477     3287     2373 1
   16478     9604    11795 1
   16479     3593     3805 1
   16480     3401     3421 1
   16481    14325    15044 1
   16482     5106     5233 1
   16483    14107    14425 1
   16484     8064     9418 1
   16485      806     1614 1
   16486     4100     5204 1
   16487    10963    11002 1
   16488     3828     4582 1
   16489    13775    14125 1
   16490    11997    12760 1
   16491     8872     7397 1
   16492    10369    11065 1
   16493     3050     2695 1
   16494     3634     3837 1
   16495     8838     9891 1
   16496     2821     2311 1
   16497    10625    11470 1
   16498     3631     4973 1
   16499    14696    15403 1
   16500    13731    14577 1
   16501    12381    12892 1
   16502     7312     9460 1
   16503    15604    15995 1
   16504     6515     7049 1
   16505     7474     8210 1
   16506    16118    16944 1
   16507    13905    14846 1
   16508     3265     2406 1
   16509    14021    14673 1
   16510    16043    16794 1
   16511     1118     1189 1
   16512     3632     4673 1
   16513     6170     6677 1
   16514     7308     9235 1
   16515    12452    13203 1
   16516     2294     1887 1
   16517    15582    16483 1
   16518     1613      399 1
   16519     4732     4416 1
   16520    15530    17157 1
   16521     5673     6720 1
   16522     4480     4519 1
   16523     8748     9152 1
   16524     3825     5211 1
   16525     8679     9922 1
   16526    14783    15069 1
   16527     1503      369 1
   16528     3837     3953 1
   16529    16324    16737 1
   16530     2281     2491 1
   16531     3893     3953 1
   16532    10358    10830 1
   16533     7637     7752 1
   16534    11158    11691 1
   16535     7544     8146 1
   16536     4086     4688 1
   16537    10274    10966 1
   16538    15481    16857 1
   16539     1804     2445 1
   16540    13722    14133 1
   16541    15453    16603 1
   16542    14981    15205 1
   16543     7631     7857 1
   16544     1664     1480 1
   16545    12594    12999 1
   16546    12092    13469 1
   16547    15104    15307 1
   16548     7576     9556 1
   16549    16735    17119 1
   16550    12143    13056 1
   16551    13646    14329 1
   16552    15701    16642 1
   16553     9167     9319 1
   16554     1202     1503 1
   16555      567      383 1
   16556     3368     2079 1
   16557     6762     6842 1
   16558    15926    16643 1
   16559     3545     1908 1
   16560     4465    16050 1
   16561     8119     8229 1
   16562     7594     9100 1
   16563    14054    14084 1
   16564    12157    12578 1
   16565     2008     2370 1
   16566    11256    11555 1
   16567    11069    11773 1
   16568     6454    10514 1
   16569    16284    16965 1
   16570     7480     8365 1
   16571    13788    15012 1
   16572     4217     4731 1
   16573     8595     9515 1
   16574     1632     1712 1
   16575    16470    16517 1
   16576     1118      272 1
   16577    15598    17116 1
   16578    12629    12910 1
   16579     8869     9354 1
   16580     5814     6291 1
   16581     5678     5896 1
   16582     1022      606 1
   16583     2986     3287 1
   16584    16212    17137 1
   16585     9308     9949 1
   16586    10805    11249 1
   16587     6168     6394 1
   16588     7173     8356 1
   16589    12557    13200 1
   16590     6000     6482 1
   16591    15224    15286 1
   16592     3278     2526 1
   16593     7445     9221 1
   16594    11857    13247 1
   16595     4038     5299 1
   16596     9065     8578 1
   16597    14011    15082 1
   16598    12215    13187 1
   16599     4265     4980 1
   16600      949      637 1
   16601      831     1494 1
   16602     9334     9420 1
   16603    16276    16593 1
   16604    12869    13201 1
   16605      954      240 1
   16606     3344     2169 1
   16607    16168    17201 1
   16608     2858     1947 1
   16609    15070    15410 1
   16610    16386    16506 1
   16611     5612     6951 1
   16612    11908    12694 1
   16613     7372     9487 1
   16614    15494    15619 1
   16615     8903     9537 1
   16616     5487     6950 1
   16617    10934    11202 1
   16618    14084    14255 1
   16619     5543     6198 1
   16620    11980    12279 1
   16621     5967     6608 1
   16622    15474    16594 1
   16623     6289     6367 1
   16624    16221    16303 1
   16625      861     1162 1
   16626      667      447 1
   16627     8850     9928 1
   16628     5890     6789 1
   16629     8646     8754 1
   16630    15739    17186 1
   16631     1061      439 1
   16632    12311    12547 1
   16633     2783     2276 1
   16634     7410     7952 1
   16635     6361     6923 1
   16636     7647     8436 1
   16637     5595    10194 1
   16638     7824     8809 1
   16639     2778     3423 1
   16640     8857     7609 1
   16641    14531    14767 1
   16642    10158    10270 1
   16643     2166     2356 1
   16644     3904     4000 1
   16645     5482     5912 1
   16646     2775     2345 1
   16647      673     1710 1
   16648     8629     9609 1
   16649     4791     5041 1
   16650     4015     5189 1
   16651    14404    14444 1
   16652     5047     5323 1
   16653    12030    13617 1
   16654     1593      391 1
   16655     9014     9923 1
   16656     2595    13924 1
   16657     5800     7087 1
   16658      838      359 1
   16659    14408    15329 1
   16660      877      212 1
   16661    13919    14946 1
   16662    10602    10713 1
   16663    11212    11591 1
   16664     4538     5142 1
   16665     8153     9251 1
   16666    10316    10653 1
   16667     2841     3289 1
   16668     2847     1829 1
   16669    14006    14209 1
   16670     5636     5867 1
   16671    12808    13416 1
   16672    12695    13459 1
   16673     8659     9649 1
   16674     3040     5216 1
   16675    12900    13102 1
   16676     1920     6743 1
   16677      772     1388 1
   16678    10512    11138 1
   16679    12864    12899 1
   16680    16090    16564 1
   16681     5373     6927 1
   16682     2434    14437 1
   16683    12520    13221 1
   16684     5627     5882 1
   16685    12298    12995 1
   16686    16405    16583 1
   16687      499      386 1
   16688     3094     2508 1
   16689    12571    13320 1
   16690    14436    14581 1
   16691    15754    16097 1
   16692     5386     6230 1
   16693    14613    14916 1
   16694     3916     5134 1
   16695    11079    11555 1
   16696    16521    16573 1
   16697     1577     1702 1
   16698      952     1221 1
   16699     2199     2415 1
   16700     3310     2668 1
   16701     5736     5835 1
   16702    14445    14621 1
   16703    15340    15417 1
   16704    13799    14247 1
   16705     6125     6430 1
   16706    14964    15347 1
   16707    13041    13185 1
   16708    13216    13297 1
   16709    13677    13701 1
   16710    14944    15388 1
   16711    14685    15317 1
   16712     7417     9527 1
   16713       76      497 1
   16714    13014    13419 1
   16715    10308    10489 1
   16716    13684    14674 1
   16717     8371    10008 1
   16718    10813    10974 1
   16719     7696     9856 1
   16720    12802    13355 1
   16721    15921    16465 1
   16722    14374    14733 1
   16723     5972     6722 1
   16724       10      450 1
   16725     5960     6144 1
   16726     1248      360 1
   16727     2905     2299 1
   16728     3800     5022 1
   16729    10317    11738 1
   16730     9914    10043 1
   16731    12310    13350 1
   16732     7950     8087 1
   16733    15715    16873 1
   16734    10844    11208 1
   16735     1263      201 1
   16736     1954     2341 1
   16737    16414    16957 1
   16738      789      538 1
   16739     7904     8192 1
   16740     2306     2050 1
   16741      527     1328 1
   16742    12231    12674 1
   16743    10797    11033 1
   16744     1090      207 1
   16745    12605    13116 1
   16746     8552     9618 1
   16747     1193     1304 1
   16748    12697    16620 1
   16749     4979     5027 1
   16750     2939     3462 1
   16751     3279     3280 1
   16752     1187      669 1
   16753    10700    10802 1
   16754     1269     1373 1
   16755     4546    10613 1
   16756    12897    13388 1
   16757     1385      149 1
   16758     3504     2311 1
   16759    14234    15266 1
   16760     1905     2441 1
   16761      936     1463 1
   16762    16487    16741 1
   16763    11096    11285 1
   16764    10707    11473 1
   16765     3692     5236 1
   16766    14044    14560 1
   16767     7898     9401 1
   16768     2371     2646 1
   16769    13583    14482 1
   16770    11679    11745 1
   16771       30      491 1
   16772     1556     1505 1
   16773    12169    12658 1
   16774     9595     9707 1
   16775    15809    16002 1
   16776    11318    11359 1
   16777     2315     2720 1
   16778    15722    16678 1
   16779     6552     6583 1
   16780     6632     6737 1
   16781    13220    13403 1
   16782     3110     3495 1
   16783    15910    16782 1
   16784    10098    11633 1
   16785    12206    12909 1
   16786     6626     6704 1
   16787    10525    11373 1
   16788     8726     8758 1
   16789    16159    16840 1
   16790     3916     4493 1
   16791     6259     6511 1
   16792     3284     3391 1
   16793    15998    16664 1
   16794    14870    15239 1
   16795     3615     2225 1
   16796    10859    11781 1
   16797     6567     7140 1
   16798      241      286 1
   16799     2089     1885 1
   16800     5889     6091 1
   16801     5470     6219 1
   16802     1227      409 1
   16803    10077    10167 1
   16804    12193    14039 1
   16805    11393    11593 1
   16806    15882    16363 1
   16807    12580    12933 1
   16808     5876     6483 1
   16809     6632     7021 1
   16810    16028    16415 1
   16811     3716     4067 1
   16812     8945     8285 1
   16813     7889     9377 1
   16814    15961    16754 1
   16815    15688    17013 1
   16816    15457    15591 1
   16817      779      669 1
   16818     3718     4274 1
   16819    11955    12398 1
   16820    11867    12792 1
   16821    10355    11258 1
   16822    14971    15212 1
   16823    12677    13524 1
   16824    15819    16801 1
   16825     8914     8599 1
   16826     4145     4956 1
   16827    10162    10343 1
   16828     8197     9520 1
   16829     3047     3260 1
   16830    10545    11088 1
   16831     1789     2487 1
   16832     4041     4276 1
   16833    10625    11069 1
   16834    12576    12716 1
   16835      831     1567 1
   16836     2926     3522 1
   16837     1291      603 1
   16838     6826     6846 1
   16839     5806     6752 1
   16840     1498      243 1
   16841     7848     7865 1
   16842     6326    10194 1
   16843     6172     6285 1
   16844     6092     6235 1
   16845     3662     5002 1
   16846    10489    11569 1
   16847     5447     5755 1
   16848     4002     4507 1
   16849    15988    16846 1
   16850    12469    13297 1
   16851    14915    15177 1
   16852     6491     7124 1
   16853     1667      127 1
   16854      811      272 1
   16855     2886     2204 1
   16856     8480     9449 1
   16857     7859     9672 1
   16858    13066    13163 1
   16859    16741    16984 1
   16860    12130    13579 1
   16861    12001    12009 1
   16862    12142    13436 1
   16863    10077    10897 1
   16864     2884     1844 1
   16865     2338     8302 1
   16866     5895     6638 1
   16867    11206    11447 1
   16868     3202     2485 1
   16869      964      432 1
   16870    13909    14452 1
   16871    11896    12654 1
   16872     1575     1477 1
   16873      665      251 1
   16874     7738     8054 1
   16875     7331     7392 1
   16876     7514     8326 1
   16877    12448    12589 1
   16878     8694     9198 1
   16879     8381     9296 1
   16880     8829     9824 1
   16881     2753     2682 1
   16882    15621    17093 1
   16883     8652     8802 1
   16884     4620     5251 1
   16885    10751    11704 1
   16886    11873    12335 1
   16887    16399    17005 1
   16888    13585    16935 1
   16889     8102     8747 1
   16890     3626     5307 1
   16891    14398    15381 1
   16892    14510    14652 1
   16893    12172    13487 1
   16894     8870     9656 1
   16895      734      344 1
   16896    14784    14811 1
   16897    11971    13509 1
   16898     5099     5267 1
   16899     1180     1251 1
   16900     2144     2504 1
   16901     5448     7054 1
   16902    14019    14607 1
   16903    13381    13398 1
   16904     1683      358 1
   16905      446     1741 1
   16906    15512    15555 1
   16907     3235     1978 1
   16908    14439    14677 1
   16909    16232    17106 1
   16910     3603     4970 1
   16911     6131     6752 1
   16912    12645    13399 1
   16913     7362     8847 1
   16914    14520    16099 1
   16915     8431     8496 1
   16916     5384     6317 1
   16917     1664      206 1
   16918     7361     9617 1
   16919     5835     6542 1
   16920     7264     8010 1
   16921    14599    15059 1
   16922     7415     8017 1
   16923     4627     4880 1
   16924    12492    12943 1
   16925     2928     3271 1
   16926    10751    11362 1
   16927    11884    15868 1
   16928    12730    13249 1
   16929     2830     3306 1
   16930     3230     2682 1
   16931     8076     8098 1
   16932     3048     2504 1
   16933     5656     7069 1
   16934     4361    10263 1
   16935    14226    14960 1
   16936     1020     1731 1
   16937     3054     3158 1
   16938    15931    16542 1
   16939     3648     4822 1
   16940     7185     9141 1
   16941     1393      255 1
   16942      382      264 1
   16943    10985    11774 1
   16944     7945     8497 1
   16945     6208     6288 1
   16946     3766     4084 1
   16947     3111     2068 1
   16948    15166    15292 1
   16949     3150     3419 1
   16950     7305     9096 1
   16951    10278    10641 1
   16952    10538    11014 1
   16953      666     4455 1
   16954    11233    11733 1
   16955     6752     6825 1
   16956     3315     3566 1
   16957     4763     4826 1
   16958      777      177 1
   16959      700     1236 1
   16960    10309    11445 1
   16961     6100     6339 1
   16962     1055     1305 1
   16963      932      435 1
   16964     2309     2330 1
   16965     5460     5665 1
   16966    15762    16173 1
   16967     3247     2715 1
   16968     3462     2400 1
   16969     7397     8491 1
   16970     5383     6769 1
   16971    15448    15454 1
   16972    16561    17145 1
   16973     7359     8170 1
   16974    11127    11717 1
   16975     4135     4689 1
   16976    10932    11566 1
   16977    14502    15072 1
   16978     3106     1957 1
   16979    14196    15309 1
   16980     2311     2556 1
   16981    10107    11787 1
   16982     4311     5228 1
   16983    13842    14644 1
   16984     7611     9298 1
   16985     2594     2706 1
   16986    10761    11537 1
   16987     6346     6466 1
   16988    13359    13433 1
   16989    15458    15855 1
   16990    10099    11574 1
   16991     6362     6724 1
   16992     6337    12400 1
   16993     4080    16264 1
   16994    13727    15162 1
   16995     3164    15562 1
   16996     7672     8393 1
   16997     3487     2099 1
   16998      738     1317 1
   16999     7928     9968 1
   17000     2856     3055 1
   17001    12120    12843 1
   17002    15504    16308 1
   17003     2866     2054 1
   17004    12234    12876 1
   17005    16090    16502 1
   17006     2416    14301 1
   17007    13818    14898 1
   17008    10904    10965 1
   17009    11957    12871 1
   17010    15154    15289 1
   17011     8575     9954 1
   17012     8875     7661 1
   17013     5397     5962 1
   17014     6084     6322 1
   17015     6024     6153 1
   17016    13721    14416 1
   17017       66     6478 1
   17018     7109    10717 1
   17019    15714    16717 1
   17020     4087     5207 1
   17021    10633    11353 1
   17022     3869     5285 1
   17023    14139    14452 1
   17024      987     1105 1
   17025     9570     9615 1
   17026     7380     8320 1
   17027      855      643 1
   17028     5868     6475 1
   17029     6371     6643 1
   17030     8277     8706 1
   17031    11181    11813 1
   17032     2905     2643 1
   17033     7575     7972 1
   17034    14915    15180 1
   17035     3872     5031 1
   17036    12121    12866 1
   17037     2197     2269 1
   17038    11004    11414 1
   17039     4600     5030 1
   17040     3080     3570 1
   17041    16722    16788 1
   17042    15674    17123 1
   17043     7335     8181 1
   17044    12758    13011 1
   17045     1330      453 1
   17046     6278     6999 1
   17047     7707     9955 1
   17048     5388     5525 1
   17049     1127     1742 1
   17050     6148     6763 1
   17051     7282     7506 1
   17052     4750     4902 1
   17053    13992    14166 1
   17054     2795     2119 1
   17055     5906     6603 1
   17056    15511    16667 1
   17057    16460    17149 1
   17058     3300     2321 1
   17059     6381     7054 1
   17060    16041    16274 1
   17061    16666    17155 1
   17062     3475     2540 1
   17063      625      453 1
   17064     7576     8179 1
   17065    12187    13406 1
   17066     8779     9106 1
   17067      916     1114 1
   17068      939      827 1
   17069      367      225 1
   17070     2317     1881 1
   17071    10327    11174 1
   17072     2036     2055 1
   17073     7709     8233 1
   17074     8939     8306 1
   17075     8208     9735 1
   17076     8037     9816 1
   17077     2936     3180 1
   17078     7218     8348 1
   17079    16204    16824 1
   17080     2103     1878 1
   17081     7687     8553 1
   17082    10726    10836 1
   17083      860     1472 1
   17084    15986    16278 1
   17085     4803     4516 1
   17086    12761    13551 1
   17087     1303     1377 1
   17088     1015      570 1
   17089     1733      440 1
   17090    17042    17084 1
   17091     8914     9565 1
   17092    11577    11642 1
   17093     6120     6829 1
   17094     7564     9879 1
   17095     7754     8247 1
   17096    16430    16478 1
   17097     7930     8061 1
   17098     5494     6144 1
   17099     2819     1938 1
   17100     4242    10688 1
   17101    13899    14162 1
   17102     3780     4838 1
   17103    16561    17179 1
   17104    13759    14773 1
   17105     1855     2710 1
   17106    15022    15343 1
   17107       62     1188 1
   17108    12209    12707 1
   17109    12202    13563 1
   17110    16378    16480 1
   17111    14751    15005 1
   17112     7839     9688 1
   17113    15535    16635 1
   17114     4068     4281 1
   17115     8599     8830 1
   17116     7291     7989 1
   17117     3151     1602 1
   17118     4225     4293 1
   17119     1684      235 1
   17120     7744     8589 1
   17121    10663    11784 1
   17122    12829    12905 1
   17123      756      852 1
   17124     3917     4418 1
   17125     7583     9744 1
   17126     5721     6611 1
   17127     2254     2486 1
   17128    14291    14411 1
   17129    10210    11426 1
   17130     3311     2587 1
   17131    12075    12870 1
   17132    12790    12834 1
   17133     3549     2281 1
   17134    10235    10837 1
   17135     7962     8472 1
   17136     6351     6780 1
   17137    11113    11526 1
   17138     1839     2594 1
   17139    10385    10895 1
   17140        6     1650 1
   17141     1730      269 1
   17142    14492    14815 1
   17143     5537     6461 1
   17144      677      428 1
   17145    12118    12347 1
   17146    10697    10719 1
   17147     8973     7502 1
   17148    10666    10896 1
   17149     3210     2161 1
   17150     8875     9521 1
   17151    13813    14865 1
   17152    10183    10249 1
   17153    13004    13459 1
   17154    16072    16553 1
   17155    13737    14991 1
   17156     3126     2673 1
   17157     8948     9713 1
   17158     4153     4874 1
   17159     6356     6974 1
   17160     8946     7860 1
   17161    15605    16483 1
   17162    15775    16405 1
   17163    15713    17144 1
   17164    14018    14153 1
   17165    12190    12452 1
   17166    10595    11294 1
   17167     5663     5909 1
   17168     3601     3647 1
   17169     3017     1870 1
   17170     5521     6583 1
   17171     4656    10292 1
   17172    10240    11163 1
   17173     4252     4850 1
   17174     7639     8338 1
   17175    12322    13285 1
   17176    11573    11604 1
   17177     3198     2199 1
   17178     7890     8043 1
   17179     5670     6099 1
   17180     7340     8254 1
   17181    15944    16079 1
   17182     4742     5219 1
   17183     1687      263 1
   17184    12478    13300 1
   17185    11217    11717 1
   17186     5995     6817 1
   17187     7975     9236 1
   17188    11895    12300 1
   17189     7231     8626 1
   17190    12360    13035 1
   17191    11854    12546 1
   17192     7958    10023 1
   17193     3379     2006 1
   17194     7210     9845 1
   17195     8519     9654 1
   17196    10124    10983 1
   17197    15593    16747 1
   17198    10503    10585 1
   17199    16491    17203 1
   17200     3249     2350 1
   17201     8356     8707 1
   17202     3804     5292 1
   17203     7729     8348 1
   17204    11940    13352 1
   17205    10274    10584 1
   17206    10367    10604 1
   17207     2866     2242 1
   17208     5477     5882 1
   17209    12686    13400 1
   17210    14366    14391 1
   17211     7371     8132 1
   17212     8359     9934 1
   17213     8651     9871 1
   17214     4210     5041 1
   17215    11968    12333 1
   17216     3592     3730 1
   17217     2571     7485 1
   17218    10309    11187 1
   17219     5504     6239 1
   17220     2226     2008 1
   17221    13918    14684 1
   17222    12987    13274 1
   17223     6994    12725 1
   17224     3975     4368 1
   17225    14075    15026 1
   17226     8058     9628 1
   17227    10140    10752 1
   17228     1022     1390 1
   17229      553     1315 1
   17230     7604     8015 1
   17231     1700     1362 1
   17232    12018    12221 1
   17233     8009     9368 1
   17234     8389     9921 1
   17235     3186     2580 1
   17236     7986     9645 1
   17237     3820     5048 1
   17238    16693    16816 1
   17239     2955     2114 1
   17240     1348      273 1
   17241     1684      170 1
   17242     8410     9924 1
   17243     2132     1918 1
   17244    13901    14025 1
   17245     3837     4387 1
   17246     7184     7249 1
   17247    14491    14512 1
   17248    14073    14794 1
   17249     4750     4427 1
   17250    11874    12269 1
   17251      160    13451 1
   17252     3629     4605 1
   17253    10532    10880 1
   17254    10356    11150 1
   17255    16703    17037 1
   17256     9803     9834 1
   17257    15599    16782 1
   17258     2879     2524 1
   17259    15776    16949 1
   17260    10559    11315 1
   17261     5922     6389 1
   17262     2825     2106 1
   17263     8129    10018 1
   17264     8509     9890 1
   17265    14257    15041 1
   17266     8429     9257 1
   17267    13945    14367 1
   17268     3650     4333 1
   17269    15067    15093 1
   17270    15544    16765 1
   17271     1011      192 1
   17272     5655     6947 1
   17273     3821     4168 1
   17274    12827    13560 1
   17275    10908    11157 1
   17276     3356     2748 1
   17277     4028     4759 1
   17278     1243      216 1
   17279    13746    15353 1
   17280     3082     1949 1
   17281     4113     4361 1
   17282     8130     9711 1
   17283    13192    13458 1
   17284    12917    16690 1
   17285      904     1466 1
   17286     3676     4714 1
   17287     5511     6865 1
   17288     3643     4740 1
   17289    15694    15782 1
   17290      103     1721 1
   17291    15507    15944 1
   17292    14119    15300 1
   17293     3176     1858 1
   17294     3650     5166 1
   17295    15853    16354 1
   17296     8911     8919 1
   17297     5539     6412 1
   17298    15524    16942 1
   17299     3423    10024 1
   17300    14758    14896 1
   17301     7378     8669 1
   17302    10696    11176 1
   17303     8947     8305 1
   17304      647     1645 1
   17305      539      466 1
   17306    10538    10596 1
   17307      617      168 1
   17308     3982     4573 1
   17309    11093    11100 1
   17310     2778     3396 1
   17311     5534     6685 1
   17312    12145    12936 1
   17313    14249    14326 1
   17314     5506     6062 1
   17315     5467     6686 1
   17316    15576    16926 1
   17317     3781     4477 1
   17318     2910     3280 1
   17319     2147     2720 1
   17320    13655    15126 1
   17321     3873     4667 1
   17322     9034     9579 1
   17323     4951     5276 1
   17324     3084     2236 1
   17325    13113    13485 1
   17326     5493     6090 1
   17327     1282      287 1
   17328    15513    17048 1
   17329     8057     8632 1
   17330     6367     6940 1
   17331    13663    14345 1
   17332     7634     9365 1
   17333    10410    10535 1
   17334     4306     4331 1
   17335     3963     4684 1
   17336     2231     2315 1
   17337     9575    11294 1
   17338     5399    10496 1
   17339    16342    16612 1
   17340    12003    12209 1
   17341     1579      261 1
   17342    13028    14493 1
   17343     4485     4839 1
   17344     4979     5136 1
   17345    10674    11615 1
   17346     4768     4777 1
   17347     9059     8689 1
   17348     5570     6907 1
   17349    10850    11533 1
   17350    11938    12220 1
   17351     2937     2241 1
   17352    12517    12778 1
   17353    16353    16708 1
   17354     1523      221 1
   17355    16232    16727 1
   17356        9      611 1
   17357    13650    13789 1
   17358    16069    17175 1
   17359     2257     1855 1
   17360     1741     5169 1
   17361    10604    10620 1
   17362     4008     5195 1
   17363    14489    15167 1
   17364    16106    16408 1
   17365     5378     5487 1
   17366    10581    11770 1
   17367     6097     6650 1
   17368     6608     6734 1
   17369    12338    12498 1
   17370    12044    12858 1
   17371    12822    13310 1
   17372     7818     8235 1
   17373    16590    16971 1
   17374    12288    13201 1
   17375     4516     5340 1
   17376     1633     1439 1
   17377    10821    11494 1
   17378     7942     8723 1
   17379    14066    14567 1
   17380     3420     2699 1
   17381     9462    10001 1
   17382     3630     3987 1
   17383    10112    11805 1
   17384      495      357 1
   17385    12205    12377 1
   17386     7276     8313 1
   17387     5532     6783 1
   17388    10389    10797 1
   17389    16266    16531 1
   17390     9025     8038 1
   17391     3671     5080 1
   17392     8956     8126 1
   17393    10696    11222 1
   17394     3330     2393 1
   17395    11932    12274 1
   17396    16107    16302 1
   17397    11912    12238 1
   17398     3348     1802 1
   17399     1003      348 1
   17400    15131    15132 1
   17401     3069     3430 1
   17402     2876     2697 1
   17403    12969    13585 1
   17404     5699     6464 1
   17405    12285    13576 1
   17406    10690    10736 1
   17407    11965    12550 1
   17408    14503    15178 1
   17409     1485      466 1
   17410     3166     2606 1
   17411     7249     9938 1
   17412      861      109 1
   17413    15063    15397 1
   17414     7806     7818 1
   17415     8425     9185 1
   17416     7849     9888 1
   17417     3584     5352 1
   17418     2571     2653 1
   17419    10139    11137 1
   17420       23     1077 1
   17421     5496    16815 1
   17422     3022     3408 1
   17423     1577     1332 1
   17424     3106     2255 1
   17425    13039    13367 1
   17426      891     1396 1
   17427    14708    16277 1
   17428     7609     8737 1
   17429     2153     2585 1
   17430    13872    15296 1
   17431     2515     2657 1
   17432     5707     6466 1
   17433     5685     6636 1
   17434     2951     3008 1
   17435    15693    15952 1
   17436     3906     5352 1
   17437    11903    12107 1
   17438     8527     9620 1
   17439     9010     6876 1
   17440      794     1233 1
   17441     1596     1351 1
   17442    13990    14887 1
   17443    13638    14594 1
   17444     8394     9590 1
   17445     5889     6692 1
   17446     4507     4868 1
   17447     7253     7327 1
   17448      884     1650 1
   17449    10313    10839 1
   17450     7307     9604 1
   17451     1714      297 1
   17452     4123     5222 1
   17453    11087    11341 1
   17454      800     1292 1
   17455    14584    14897 1
   17456     7320     8430 1
   17457    15765    17101 1
   17458    10131    10414 1
   17459     4356     5081 1
   17460     7568     9321 1
   17461     4763     4413 1
   17462     7012    11308 1
   17463     4811     5318 1
   17464    11179    11303 1
   17465    12440    12865 1
   17466     8863     9762 1
   17467     3668     5071 1
   17468    11868    13247 1
   17469    11099    11813 1
   17470     4769     4481 1
   17471     6113     7063 1
   17472     7177     8312 1
   17473    14083    14568 1
   17474      812      196 1
   17475     3883     4347 1
   17476    11919    12604 1
   17477     3598     3604 1
   17478     2250     1835 1
   17479    14558    14703 1
   17480      135    11431 1
   17481     1092     1622 1
   17482     3496     2152 1
   17483    10980    11030 1
   17484     4200     4956 1
   17485    15604    16209 1
   17486     6276     6454 1
   17487    13876    14860 1
   17488     3510     2089 1
   17489     7719     9495 1
   17490    15026    15096 1
   17491     3136     2180 1
   17492     1634      167 1
   17493     4772     5245 1
   17494      850     1470 1
   17495     1481      233 1
   17496     3185     1843 1
   17497     8549     8588 1
   17498    10458    11290 1
   17499     1877     1893 1
   17500      907      838 1
   17501    12070    13292 1
   17502    15504    15940 1
   17503    10078    11676 1
   17504     7428     7971 1
   17505     9160     9253 1
   17506    16436    16802 1
   17507     4880     5121 1
   17508    16069    16374 1
   17509     3341     2584 1
   17510     8642    10040 1
   17511      547     1774 1
   17512     7925     9397 1
   17513    11584    11703 1
   17514     3123     2501 1
   17515    14695    15310 1
   17516    16227    16335 1
   17517    11958    12406 1
   17518    14126    15399 1
   17519      211      257 1
   17520     8258     9574 1
   17521     1010      618 1
   17522    13701    14462 1
   17523    11016    11266 1
   17524     5371     5820 1
   17525    10183    11409 1
   17526    11964    12501 1
   17527    15431    16002 1
   17528     7798     9780 1
   17529    15518    15793 1
   17530     3922     5025 1
   17531     5749     6192 1
   17532      598     1417 1
   17533    12778    12831 1
   17534    11571    11705 1
   17535    13675    15171 1
   17536     7862     9676 1
   17537     2866     2464 1
   17538      512      649 1
   17539    13979    15837 1
   17540     1372      440 1
   17541     2618     2686 1
   17542     7547     9322 1
   17543     7817     9411 1
   17544    10073    10718 1
   17545    11904    13178 1
   17546    16089    17208 1
   17547     8752    10096 1
   17548    10984    11597 1
   17549    13945    14263 1
   17550    10325    10450 1
   17551    10931    11549 1
   17552     2333     2098 1
   17553    10210    11561 1
   17554     2306     1901 1
   17555    12415    13527 1
   17556    12306    12490 1
   17557    15559    16856 1
   17558     6088     6428 1
   17559     7983     8001 1
   17560     8402     9236 1
   17561     3645     4398 1
   17562     7237     8748 1
   17563     7257     9278 1
   17564     3058     2109 1
   17565     2972     1850 1
   17566     8453    10011 1
   17567     5628     5715 1
   17568     1562      288 1
   17569     9054     9209 1
   17570    16073    17215 1
   17571     8498     8616 1
   17572     5967     7099 1
   17573      739     1193 1
   17574     9185     9683 1
   17575    14156    14496 1
   17576    10653    11037 1
   17577    10777    11750 1
   17578     4306     5093 1
   17579    15477    16720 1
   17580      252      271 1
   17581    12855    13484 1
   17582     3309     3376 1
   17583     6120     6331 1
   17584     6114     6248 1
   17585     9038     8194 1
   17586     7595     7756 1
   17587     4524     5167 1
   17588    12536    13379 1
   17589    10629    11736 1
   17590    10195    10385 1
   17591    13651    13862 1
   17592     3742     4100 1
   17593     5978     6053 1
   17594     4009     5129 1
   17595    10255    11316 1
   17596     8051     8131 1
   17597    14351    14792 1
   17598     6436     6954 1
   17599    12689    13313 1
   17600    14026    14836 1
   17601     3601     5007 1
   17602    14421    14792 1
   17603    10419    11328 1
   17604     4256     4807 1
   17605     6964     9973 1
   17606     5452     5468 1
   17607    12112    12456 1
   17608     2144     1862 1
   17609      869      309 1
   17610    11846    12428 1
   17611     5114     5320 1
   17612     1961     2559 1
   17613     6399     6406 1
   17614    12496    12564 1
   17615    16710    16862 1
   17616    14269    14579 1
   17617     2089     2555 1
   17618     3872     4289 1
   17619    14494    15368 1
   17620    10219    11662 1
   17621     1592     1516 1
   17622    12969    13552 1
   17623    12483    13010 1
   17624     8442     9839 1
   17625     8085     8560 1
   17626     5586     5727 1
   17627     5815     6694 1
   17628    14478    14659 1
   17629    11888    11914 1
   17630      905     1440 1
   17631    10731    11352 1
   17632     3191     3350 1
   17633      566     1465 1
   17634     7620     8240 1
   17635     5657     6393 1
   17636    15753    15908 1
   17637    15472    15497 1
   17638      731      527 1
   17639     7801     8352 1
   17640      725      410 1
   17641     7484     9542 1
   17642    14070    15468 1
   17643     8887     9507 1
   17644    12270    12931 1
   17645     3936     4849 1
   17646     2780     2506 1
   17647     1029     1277 1
   17648     4347     5263 1
   17649    14973    15255 1
   17650    15979    16255 1
   17651     7440     9569 1
   17652     5379     5385 1
   17653     5957     6343 1
   17654    14480    15098 1
   17655     3882     4439 1
   17656    12480    12783 1
   17657    15642    15760 1
   17658     7377     7417 1
   17659     8323     8406 1
   17660      842     1190 1
   17661     8987     9128 1
   17662     6456     7012 1
   17663      887      283 1
   17664    16135    16905 1
   17665    10141    10183 1
   17666     4334     5036 1
   17667     6376    11256 1
   17668    11302    11383 1
   17669     2831     3098 1
   17670     7454     8820 1
   17671     3465     2493 1
   17672     7860     9551 1
   17673    10983    11062 1
   17674     1031      113 1
   17675    13692    13810 1
   17676     1516      348 1
   17677    14320    14965 1
   17678    13760    14696 1
   17679    14627    15288 1
   17680    14717    14980 1
   17681      511      347 1
   17682     9599     9764 1
   17683     7371     9685 1
   17684    11021    11625 1
   17685     2315     2654 1
   17686     6397     6739 1
   17687    12419    13413 1
   17688       20      126 1
   17689     6456     6818 1
   17690    10338    10387 1
   17691     5430     6347 1
   17692      239     6423 1
   17693     7650     8804 1
   17694     1319      302 1
   17695    14161    14509 1
   17696     2023     2388 1
   17697     4472     5019 1
   17698    12523    13118 1
   17699    12205    13490 1
   17700    10154    10994 1
   17701     9110     9809 1
   17702     5646     7077 1
   17703    10929    11050 1
   17704     4400     5129 1
   17705    10252    11659 1
   17706    13164    13411 1
   17707    10792    11817 1
   17708      104      468 1
   17709    16758    17002 1
   17710     7663     8131 1
   17711     9354     9707 1
   17712      754     1697 1
   17713     3199     2170 1
   17714    10740    11286 1
   17715     5966     6105 1
   17716     3570     2251 1
   17717     3361     2085 1
   17718     6018     6431 1
   17719    10135    10567 1
   17720    12322    13095 1
   17721     7518     8747 1
   17722    15843    15910 1
   17723    13654    14454 1
   17724    10679    10947 1
   17725    12646    15381 1
   17726    16076    16592 1
   17727    17107    17122 1
   17728    15811    15997 1
   17729    12539    12688 1
   17730    15111    15387 1
   17731    14413    14638 1
   17732     2996     3097 1
   17733     8100     8133 1
   17734    14028    14647 1
   17735     6489     7075 1
   17736     7201     9505 1
   17737     4566     4587 1
   17738     2784     2561 1
   17739     7368     9271 1
   17740     5420     5973 1
   17741     5823     6031 1
   17742    15931    16021 1
   17743    15441    16841 1
   17744    14193    14547 1
   17745     8671     9969 1
   17746     7278     9225 1
   17747      952      969 1
   17748    11221    11620 1
   17749     8043     9316 1
   17750    13645    15356 1
   17751     8017     9237 1
   17752     1579      145 1
   17753    14179    14459 1
   17754     9341     9512 1
   17755      791      477 1
   17756     1002     1560 1
   17757     1849     2451 1
   17758     7174    10035 1
   17759    16287    16611 1
   17760     7495     9185 1
   17761     9012    10004 1
   17762     2893     2983 1
   17763    14609    15112 1
   17764     5935     7051 1
   17765     1328     1475 1
   17766    15490    16796 1
   17767     3624     5039 1
   17768     1614     1634 1
   17769     3080     2737 1
   17770     9110     9274 1
   17771    14422    14849 1
   17772    10837    11753 1
   17773    11015    11564 1
   17774     8625     8807 1
   17775     3189     2047 1
   17776     6467     7010 1
   17777    12144    13038 1
   17778     6559     6897 1
   17779    11928    12539 1
   17780     7170     9937 1
   17781     4645     5358 1
   17782     6536     6966 1
   17783     7899     9392 1
   17784    16012    16153 1
   17785    13147    13594 1
   17786    12141    13192 1
   17787    13973    15199 1
   17788     3268     2487 1
   17789     1326      136 1
   17790     6193     6460 1
   17791     8910     7220 1
   17792     6148     6573 1
   17793     4850     5113 1
   17794     7323     9323 1
   17795    11861    12713 1
   17796     8365     9980 1
   17797     8943     8048 1
   17798    14163    15177 1
   17799     9546     9759 1
   17800     3831     4917 1
   17801     7905     8224 1
   17802     8908     2023 1
   17803    10758    10946 1
   17804     5922     6353 1
   17805     1213      383 1
   17806     9022     8325 1
   17807    15978    17212 1
   17808      955     1074 1
   17809     7796     8549 1
   17810    16059    16701 1
   17811    12742    13519 1
   17812    13676    15157 1
   17813     6063     6781 1
   17814     1796     2710 1
   17815    10537    10598 1
   17816    15732    17160 1
   17817    10233    11285 1
   17818    14197    14215 1
   17819     6409     6677 1
   17820     5513     5935 1
   17821     8998     8007 1
   17822     3359     2035 1
   17823    13899    15367 1
   17824     7356     8643 1
   17825    10610    11649 1
   17826     8036     8477 1
   17827     8677     9812 1
   17828    10602    11829 1
   17829      770      106 1
   17830     9695     9864 1
   17831    10753    10942 1
   17832    15969    16243 1
   17833     3018     3488 1
   17834     1560      175 1
   17835     8268     8653 1
   17836    15595    16047 1
   17837    12485    12694 1
   17838    15574    15936 1
   17839     4160     4382 1
   17840     2945     2642 1
   17841    16682    17098 1
   17842     1515      409 1
   17843    11461    11584 1
   17844    16251    17064 1
   17845     5561     6378 1
   17846     1967    14592 1
   17847    15818    16684 1
   17848    12579    13466 1
   17849      762      490 1
   17850     5845     6157 1
   17851    11370    11627 1
   17852     4534     4859 1
   17853     3165     2258 1
   17854     7932     9613 1
   17855    13355    14260 1
   17856     8254     9854 1
   17857    10137    11457 1
   17858    15596    17159 1
   17859    16573    17090 1
   17860     3687     4898 1
   17861     7570     9166 1
   17862     9149    10029 1
   17863     2961     2637 1
   17864    11541    11639 1
   17865     4201     5016 1
   17866      903     1677 1
   17867    11217    11399 1
   17868     1538     1556 1
   17869     3127     2204 1
   17870     7414     9775 1
   17871     5274     5349 1
   17872     5412     6785 1
   17873        1      222 1
   17874    10511    11240 1
   17875     1461     1481 1
   17876     8169     8682 1
   17877     6107     6309 1
   17878     4463     4916 1
   17879     1976     1853 1
   17880    11920    12203 1
   17881    10202    10651 1
   17882    11076    11442 1
   17883    10294    11007 1
   17884     2983     3128 1
   17885     8959     7826 1
   17886     7313     7494 1
   17887     1111     1534 1
   17888    16435    16875 1
   17889     6579     7032 1
   17890     8392     9994 1
   17891      332      283 1
   17892     1319     6647 1
   17893     7339     9534 1
   17894     6358     6407 1
   17895    10295    10340 1
   17896    10265    11441 1
   17897    10489    11354 1
   17898     4177    15461 1
   17899    14829    15149 1
   17900    16464    16654 1
   17901     8145    10006 1
   17902     9097     9470 1
   17903     4228     4667 1
   17904     3468     2617 1
   17905     7801     8145 1
   17906    12652    13155 1
   17907      317      324 1
   17908     2244     2667 1
   17909     5011     5072 1
   17910    12375    13117 1
   17911    10681    11456 1
   17912     1927     8302 1
   17913     3912     4949 1
   17914      782     1601 1
   17915     4694     4840 1
   17916    15647    17218 1
   17917     6103     6859 1
   17918    15904    16381 1
   17919     2802     2994 1
   17920    11917    13528 1
   17921     3690     4094 1
   17922     5591     6370 1
   17923     8906     9475 1
   17924     9062     9184 1
   17925     9014     8377 1
   17926     1051      656 1
   17927     7460     9274 1
   17928     5452     6636 1
   17929     1342      258 1
   17930    16086    16191 1
   17931     9731     9794 1
   17932     9160     9559 1
   17933    13871    14103 1
   17934     9342     9790 1
   17935    15662    16386 1
   17936     2821     3127 1
   17937    13072    13156 1
   17938     5842     6773 1
   17939    13701    14492 1
   17940    14765    15346 1
   17941       18      874 1
   17942    13012    13476 1
   17943     5723     6042 1
   17944    16202    16739 1
   17945     6017     7137 1
   17946    10968    11236 1
   17947    13772    14900 1
   17948    16376    16762 1
   17949    13346    14265 1
   17950     1081     1553 1
   17951    15498    16571 1
   17952     3616     4291 1
   17953     8979     7577 1
   17954    10277    10864 1
   17955    15615    17105 1
   17956    12522    13264 1
   17957     3958     5322 1
   17958     5400     6079 1
   17959     4000     4250 1
   17960    11494    11566 1
   17961     8139     9886 1
   17962     7879     9399 1
   17963    16321    16843 1
   17964     9178     9763 1
   17965    15575    16026 1
   17966     7477     8843 1
   17967    16652    16903 1
   17968     2947     3132 1
   17969    16204    16676 1
   17970    10503    11794 1
   17971     9316     9715 1
   17972    10161    11731 1
   17973     3802     4741 1
   17974     9593     9595 1
   17975    10157    10563 1
   17976     7386     9586 1
   17977    13033    13357 1
   17978    12312    13163 1
   17979    10389    11068 1
   17980    15535    15716 1
   17981     3054     2240 1
   17982    10074    10286 1
   17983    12255    12686 1
   17984    10658    11344 1
   17985    14353    15030 1
   17986       70     1137 1
   17987    11976    12735 1
   17988     6349     6670 1
   17989     1106      813 1
   17990    14684    15157 1
   17991      529      220 1
   17992     6036     8308 1
   17993    16983    17143 1
   17994     3886     5105 1
   17995    16276    16896 1
   17996    16181    16629 1
   17997     1050     1710 1
   17998     9064     9282 1
   17999      735     1112 1
   18000    12044    13252 1
   18001     7505     9738 1
   18002     1089     1139 1
   18003     4038     4114 1
   18004     7184     9890 1
   18005    12863    13472 1
   18006     2940     3322 1
   18007     8860     7972 1
   18008    11353    11734 1
   18009    15590    16498 1
   18010     1129     1756 1
   18011    10461    10729 1
   18012     7988    10038 1
   18013    14738    16042 1
   18014     1758      123 1
   18015     4692     5253 1
   18016     2839     3330 1
   18017    13789    13796 1
   18018    15535    17128 1
   18019    12128    13462 1
   18020     8589     9666 1
   18021     4693     4831 1
   18022     9217    11698 1
   18023     6121     6823 1
   18024    12439    12938 1
   18025     3910     4910 1
   18026     3336     2220 1
   18027    16384    16901 1
   18028    11013    11702 1
   18029    13840    14268 1
   18030    13826    15038 1
   18031    12240    12852 1
   18032     6552     6615 1
   18033     2181     2061 1
   18034     4223     4859 1
   18035     1079      366 1
   18036    14470    14736 1
   18037     7191     7255 1
   18038     8925     8366 1
   18039    13261    13280 1
   18040     5593     6391 1
   18041    12537    13368 1
   18042     6330     7004 1
   18043    16556    16685 1
   18044     3783     4350 1
   18045     9774    13791 1
   18046    15765    17177 1
   18047     2032     2439 1
   18048    12527    13075 1
   18049    10138    11539 1
   18050     8584     9312 1
   18051    10056    10276 1
   18052     7488     9429 1
   18053    15687    16838 1
   18054    15669    17027 1
   18055     4017     4048 1
   18056     1258     1380 1
   18057     7352     9726 1
   18058     3601     3925 1
   18059    16895    16915 1
   18060    10145    10557 1
   18061     3563     2425 1
   18062     5470     6368 1
   18063      587      224 1
   18064     3868     4846 1
   18065    12647    12920 1
   18066     4414     4593 1
   18067    11986    12883 1
   18068     5414     6287 1
   18069    15859    16711 1
   18070    10710    11768 1
   18071    12547    13510 1
   18072       84      546 1
   18073     8980     7897 1
   18074     4929     5354 1
   18075     8568     9994 1
   18076     5437     6289 1
   18077     1104      729 1
   18078    12497    13456 1
   18079     8187    14530 1
   18080      648      372 1
   18081    11329    11594 1
   18082    10593    10867 1
   18083     8604     9359 1
   18084    13955    14912 1
   18085    13016    13443 1
   18086     5120     5296 1
   18087     3071     2469 1
   18088     9232     9843 1
   18089     7952     9215 1
   18090     3400     2185 1
   18091     7403     9365 1
   18092    13648    14425 1
   18093    15607    16980 1
   18094    15884    16026 1
   18095        4      588 1
   18096    16433    16993 1
   18097      103      216 1
   18098    13925    14889 1
   18099      777      659 1
   18100    15722    16582 1
   18101     3539     1843 1
   18102     5425     5553 1
   18103    10368    11753 1
   18104      994      144 1
   18105     4559     4881 1
   18106     7971     9388 1
   18107    10242    10843 1
   18108     5763     6600 1
   18109     6305     7133 1
   18110      810     1313 1
   18111    15801    16500 1
   18112    13795    15111 1
   18113     5625     5743 1
   18114    15695    16820 1
   18115    11215    11763 1
   18116     2777     2656 1
   18117     7257     8163 1
   18118    14157    15355 1
   18119    14296    14427 1
   18120     5764     6156 1
   18121    10204    11553 1
   18122    12016    12057 1
   18123     6773     6896 1
   18124    14132    15414 1
   18125     6795     6903 1
   18126    15038    15065 1
   18127    12868    13556 1
   18128    11231    11379 1
   18129    11247    11356 1
   18130    13329    13392 1
   18131      460      256 1
   18132    14780    15372 1
   18133     7635     9743 1
   18134    10057    10761 1
   18135    10682    11434 1
   18136     5475     5575 1
   18137    10090    10887 1
   18138     5456     5894 1
   18139    12775    13316 1
   18140     5889     5965 1
   18141    14042    14114 1
   18142     7582     8498 1
   18143     5913     6480 1
   18144     5416     6876 1
   18145     9716     9912 1
   18146     3517     2290 1
   18147     8888     8061 1
   18148     3297     3522 1
   18149     9058     8556 1
   18150     4566     5206 1
   18151     7209     8850 1
   18152     8283     9243 1
   18153     2423     2481 1
   18154     1969     2609 1
   18155    14254    14460 1
   18156    11926    12754 1
   18157      975      672 1
   18158    16553    16681 1
   18159    12206    12780 1
   18160     8129     9426 1
   18161    12337    13497 1
   18162    12618    13535 1
   18163     7216     8221 1
   18164    15536    15857 1
   18165    14476    14855 1
   18166     8965     7166 1
   18167    12051    12931 1
   18168     4541     5320 1
   18169     2154     1873 1
   18170     8979     8371 1
   18171     5609     6928 1
   18172     3132     1962 1
   18173    10469    11465 1
   18174     5881     6617 1
   18175      940     1073 1
   18176     8536     9590 1
   18177    14333    14875 1
   18178     4006     5298 1
   18179     8483     9358 1
   18180     4359     4727 1
   18181    16171    17094 1
   18182     5431     6755 1
   18183     7723     9679 1
   18184     2474     2569 1
   18185     2577     2684 1
   18186     6384     6889 1
   18187     9008     9742 1
   18188    10264    10835 1
   18189     1632     1365 1
   18190     9341    10027 1
   18191     4538     5144 1
   18192    10697    11832 1
   18193     5564     5994 1
   18194    14205    14606 1
   18195     3613     4177 1
   18196     2538     2701 1
   18197    10366    11408 1
   18198    16033    17066 1
   18199    10861    11095 1
   18200    10100    10185 1
   18201     3260     2704 1
   18202    12386    13082 1
   18203     3027     2422 1
   18204     4196     5357 1
   18205       87     1613 1
   18206     3772     5207 1
   18207     5115     5352 1
   18208    15596    15712 1
   18209     7920     8314 1
   18210    16455    16977 1
   18211     7270     8818 1
   18212      823     1717 1
   18213     7803     8567 1
   18214     6098     6433 1
   18215    13956    14822 1
   18216    14102    15018 1
   18217     3587    15581 1
   18218     4832     4518 1
   18219     7785     8231 1
   18220    13936    14406 1
   18221     1807     1813 1
   18222    10861    11134 1
   18223     5662     5859 1
   18224    12203    12370 1
   18225    15661    16260 1
   18226    12711    13428 1
   18227     5072     5260 1
   18228    10451    10952 1
   18229     7570     7768 1
   18230    10139    10277 1
   18231       72     1686 1
   18232     5854     5880 1
   18233    16456    16490 1
   18234     3401     2588 1
   18235     4282     4989 1
   18236    10549    11706 1
   18237     3728     4623 1
   18238     7623     9211 1
   18239     7479     9855 1
   18240     3990     4917 1
   18241    12876    13217 1
   18242     1517      482 1
   18243    13892    14229 1
   18244      704     1484 1
   18245    12170    12475 1
   18246    15825    16650 1
   18247     4372     4866 1
   18248     3582     4500 1
   18249     2347     2698 1
   18250     4345     4761 1
   18251     6203     8118 1
   18252     8374     9533 1
   18253    15609    16330 1
   18254    14551    14904 1
   18255    16177    16385 1
   18256    11478    11813 1
   18257    15833    16327 1
   18258      660      137 1
   18259     3839     4142 1
   18260     1102      855 1
   18261     7959     8478 1
   18262    13053    13153 1
   18263    10800    11126 1
   18264     4388     5272 1
   18265     8554     8840 1
   18266    10082    10406 1
   18267    13729    15365 1
   18268      895      625 1
   18269     4021     4677 1
   18270    14022    14749 1
   18271    16882    16906 1
   18272     8744     9278 1
   18273    16193    16263 1
   18274    12008    13318 1
   18275     3966     5294 1
   18276    10742    11137 1
   18277    12725    13073 1
   18278    10161    10827 1
   18279    15649    16236 1
   18280    13931    15398 1
   18281     5771     6363 1
   18282     2842     2034 1
   18283     3147     2716 1
   18284     3904     4090 1
   18285     3191     2256 1
   18286     1110     1770 1
   18287    15548    15631 1
   18288    15463    17093 1
   18289     8258    11794 1
   18290    14686    14953 1
   18291    12126    12726 1
   18292     2675    14250 1
   18293      295      253 1
   18294    10424    11812 1
   18295     3813     4524 1
   18296     7941     8595 1
   18297    12398    12911 1
   18298     6350     7018 1
   18299     7902     7906 1
   18300    12844    13253 1
   18301     3152     2431 1
   18302    15793    17045 1
   18303     2282     2086 1
   18304     7461     9235 1
   18305     3958     5053 1
   18306     7918     8111 1
   18307    12063    12939 1
   18308     7773     8812 1
   18309    12058    13515 1
   18310    13339    13412 1
   18311    14209    15206 1
   18312    10494    11610 1
   18313    16764    16909 1
   18314     8191     8393 1
   18315    15433    16493 1
   18316    13874    14452 1
   18317       75      394 1
   18318    15577    16934 1
   18319    11962    13508 1
   18320    10729    11028 1
   18321    11423    11426 1
   18322    14740    15244 1
   18323    10223    11775 1
   18324     3091     1903 1
   18325    10399    10705 1
   18326    15442    16997 1
   18327    12251    12595 1
   18328     9055     7734 1
   18329     5802     5825 1
   18330    10203    10701 1
   18331     2779     2683 1
   18332     2841     3257 1
   18333    11324    11694 1
   18334      785     1200 1
   18335    10483    11665 1
   18336      456      119 1
   18337    12365    13393 1
   18338     6046     6059 1
   18339     7468     9818 1
   18340     5522     5885 1
   18341     2966     2695 1
   18342    12107    13065 1
   18343     5977     6369 1
   18344     8153     8838 1
   18345     7528     9176 1
   18346    12540    13512 1
   18347    13937    14635 1
   18348     7803     8539 1
   18349     3713     4835 1
   18350     1735      201 1
   18351    10613    10954 1
   18352     1023      843 1
   18353     9025     9288 1
   18354     7579     9745 1
   18355     2275     1960 1
   18356       29     1752 1
   18357    14084    14969 1
   18358     7747     9156 1
   18359     3489     3564 1
   18360    10957    11493 1
   18361     7355     7446 1
   18362     6953     7016 1
   18363    12542    13111 1
   18364     3470     2019 1
   18365     1184      325 1
   18366    12614    12652 1
   18367    14486    15035 1
   18368     3149     1797 1
   18369    11041    11160 1
   18370    12796    13556 1
   18371     3334     3492 1
   18372    15571    17164 1
   18373     6166     6688 1
   18374    14064    15187 1
   18375    12632    12712 1
   18376     7947     8273 1
   18377    14343    14456 1
   18378    13896    14152 1
   18379    13911    14299 1
   18380    10385    10741 1
   18381    15693    15997 1
   18382     5638     5756 1
   18383     6522     6598 1
   18384    13969    14740 1
   18385    13891    14254 1
   18386     5827     6766 1
   18387     4165     4274 1
   18388    12569    13150 1
   18389    10316    10903 1
   18390    11936    12162 1
   18391     2849     2702 1
   18392     8942     9685 1
   18393     3331     2217 1
   18394    15895    15970 1
   18395    12167    13190 1
   18396    16237    16960 1
   18397    12302    13133 1
   18398    11684    11764 1
   18399      817      244 1
   18400      820      867 1
   18401     4357     4773 1
   18402    10194    11475 1
   18403    16193    16403 1
   18404    12720    13478 1
   18405     3973     4404 1
   18406     2547      205 1
   18407    12568    12675 1
   18408    11147    11674 1
   18409    11477    11624 1
   18410     1014      334 1
   18411    16311    17071 1
   18412     9243     9665 1
   18413     5663     5987 1
   18414    14484    14559 1
   18415    12467    13608 1
   18416     1406     1455 1
   18417     2769     2847 1
   18418     8725     9740 1
   18419    14867    15135 1
   18420    15926    16141 1
   18421     8096     8245 1
   18422     1425      376 1
   18423     7559     7917 1
   18424     9492     9990 1
   18425     5788     6777 1
   18426    12679    12701 1
   18427    12551    12585 1
   18428    10486    11329 1
   18429    10774    11525 1
   18430    12187    12763 1
   18431     2994     3489 1
   18432     4330     4349 1
   18433     6178     6225 1
   18434     8131    10046 1
   18435      740      334 1
   18436    15976    16317 1
   18437    12564    13234 1
   18438    14571    15099 1
   18439     8402     9118 1
   18440    16995    17107 1
   18441     4098     4431 1
   18442      977      674 1
   18443     3976     4467 1
   18444    15734    17130 1
   18445    12640    12987 1
   18446    16092    16295 1
   18447    10399    11388 1
   18448    11987    12720 1
   18449     8169     9825 1
   18450      705     1561 1
   18451    14565    15154 1
   18452    13725    13949 1
   18453     4179     4592 1
   18454    15639    16440 1
   18455    15855    15862 1
   18456    16169    16751 1
   18457     2887     2364 1
   18458     2808     1958 1
   18459     1058     1674 1
   18460     4786     4533 1
   18461    16281    16343 1
   18462    11368    11553 1
   18463     7540     9076 1
   18464    15747    16820 1
   18465     4683     5344 1
   18466    14169    14445 1
   18467    10086    11100 1
   18468     8620    10723 1
   18469     5437     6368 1
   18470     2481     2669 1
   18471     3295     2470 1
   18472    12862    13232 1
   18473     4302     5336 1
   18474    11849    12902 1
   18475    13294    13536 1
   18476     2981     9822 1
   18477     1121     1266 1
   18478     5368     5738 1
   18479     8345     9646 1
   18480     7313     9940 1
   18481    12392    16533 1
   18482     6396     7129 1
   18483    15124    15223 1
   18484     4256     4722 1
   18485    12043    13480 1
   18486     1725     5025 1
   18487     8858     8452 1
   18488     3862     5063 1
   18489      764     1332 1
   18490      854     1532 1
   18491    12138    13425 1
   18492    15665    16575 1
   18493      984      598 1
   18494     1267      518 1
   18495      624     1786 1
   18496     9167    10039 1
   18497     5987     6808 1
   18498     7652     7785 1
   18499    14329    14424 1
   18500    14072    14284 1
   18501     2292    14468 1
   18502    14121    14637 1
   18503    14590    15232 1
   18504     5984     7131 1
   18505     3793     5350 1
   18506     4599     5284 1
   18507     8263     9868 1
   18508     2604     2713 1
   18509    12590    12979 1
   18510     9050     8348 1
   18511     4182     4741 1
   18512     6532     6999 1
   18513    10301    11529 1
   18514    10238    11231 1
   18515    11942    12932 1
   18516     2941     2597 1
   18517     7456     9749 1
   18518     9004     9228 1
   18519    15993    16085 1
   18520     5828     7094 1
   18521    10757    11289 1
   18522    14136    15367 1
   18523     4590     4889 1
   18524     1595      298 1
   18525     1503     2417 1
   18526     5828     7151 1
   18527     6261     6811 1
   18528     1030     1309 1
   18529     3931     5253 1
   18530     7635    10005 1
   18531     8719    10009 1
   18532    11290    11673 1
   18533    15533    16202 1
   18534    11105    11762 1
   18535     2233     2422 1
   18536     2930     2957 1
   18537    12033    13537 1
   18538    13809    14688 1
   18539     7523     7629 1
   18540     4461     4980 1
   18541     5550     7061 1
   18542     7163     8852 1
   18543    12082    13589 1
   18544    10812    10943 1
   18545    13911    14003 1
   18546    14161    14576 1
   18547    13804    14319 1
   18548    14101    15376 1
   18549    10649    10844 1
   18550     3746     4259 1
   18551    12130    13124 1
   18552     1988     1906 1
   18553     8340     9657 1
   18554     7155     9216 1
   18555     4247     4873 1
   18556    10333    11081 1
   18557    14059    15050 1
   18558    14236    14658 1
   18559     2117     2473 1
   18560     5866     6280 1
   18561    12275    15595 1
   18562     8470     9518 1
   18563     8108     9480 1
   18564     4577     5146 1
   18565     4357     5339 1
   18566    11073    11654 1
   18567     2871    14432 1
   18568    16414    16632 1
   18569     7895     9685 1
   18570      611      346 1
   18571      936     1140 1
   18572    13208    17036 1
   18573    13648    13668 1
   18574     8858     7332 1
   18575     1043     1444 1
   18576    11967    12324 1
   18577    12627    12871 1
   18578     8913     9054 1
   18579    12864    13368 1
   18580    10502    11108 1
   18581     1000      305 1
   18582    16291    16596 1
   18583     7487     9865 1
   18584     8840     9806 1
   18585    13825    15088 1
   18586     7472     7686 1
   18587    10298    10872 1
   18588    10178    11811 1
   18589     7629     9600 1
   18590     7554     7864 1
   18591      985     1319 1
   18592     6381     6947 1
   18593       10      308 1
   18594     4652     5328 1
   18595     1307      465 1
   18596    16715    16890 1
   18597     8434     9132 1
   18598    15480    16244 1
   18599     8520     9882 1
   18600    12599    12729 1
   18601     3679     4927 1
   18602     4074     5346 1
   18603     3526     2341 1
   18604    12524    12924 1
   18605     4251     4995 1
   18606     1970     1823 1
   18607    10819    11108 1
   18608    13656    13662 1
   18609     1039      526 1
   18610    16771    16972 1
   18611     7312     7983 1
   18612    12246    12738 1
   18613    16467    16682 1
   18614     2309     1945 1
   18615    10175    10556 1
   18616     3109     1972 1
   18617    15679    17077 1
   18618    12508    13042 1
   18619     3651     3932 1
   18620      631      354 1
   18621     5939     6934 1
   18622      997     1609 1
   18623     5541     6910 1
   18624     2890     2136 1
   18625     8428     9794 1
   18626    10798    11151 1
   18627     5632     6136 1
   18628    14273    14844 1
   18629     3574     4828 1
   18630     1071      743 1
   18631     7839     8324 1
   18632      817      507 1
   18633    10593    10846 1
   18634     1594      222 1
   18635    11045    11704 1
   18636     5554     5873 1
   18637     8270    14264 1
   18638     2846     2850 1
   18639     8756     9616 1
   18640    14248    15048 1
   18641     3850     4572 1
   18642    10767    11730 1
   18643    11863    12246 1
   18644      710     1679 1
   18645     4448     5067 1
   18646     3016     2666 1
   18647    12606    12894 1
   18648     4764     5249 1
   18649      803     6011 1
   18650     1509      156 1
   18651       71     1391 1
   18652    12931    14341 1
   18653      658     1663 1
   18654     3806     4563 1
   18655     7767     8110 1
   18656    10795    11127 1
   18657    15708    16240 1
   18658     7621     8122 1
   18659     2814     2081 1
   18660     4295     5289 1
   18661    15503    15823 1
   18662    13996    14866 1
   18663     7480     8843 1
   18664     5885     5908 1
   18665     4249     4786 1
   18666     8926     8815 1
   18667     7814     8543 1
   18668     7570     8507 1
   18669     8836     9457 1
   18670    14618    15103 1
   18671    10832    11500 1
   18672     7447     7794 1
   18673      331      428 1
   18674     4190     5246 1
   18675    11948    12149 1
   18676     8765     9916 1
   18677    14297    14838 1
   18678     2898     2695 1
   18679    10714    11714 1
   18680     5585     6275 1
   18681     3717     4563 1
   18682     7494     9197 1
   18683     8972     7288 1
   18684     8685     9567 1
   18685     7235     8523 1
   18686    13695    14826 1
   18687     6294     6838 1
   18688    11867    11873 1
   18689     8898     9564 1
   18690    13949    14190 1
   18691    13694    14998 1
   18692     3324     2483 1
   18693    16039    16602 1
   18694    15639    16307 1
   18695     9056     9215 1
   18696    16024    16380 1
   18697     7369     8438 1
   18698     6421     6649 1
   18699    13796    14935 1
   18700     7648     7862 1
   18701    15992    16342 1
   18702    16490    17110 1
   18703     7839     8613 1
   18704     5601     6447 1
   18705     1074      378 1
   18706    11763    11827 1
   18707     8920     8254 1
   18708      926     1443 1
   18709     3830     3902 1
   18710    14029    14046 1
   18711    10534    11495 1
   18712     1266      629 1
   18713     7402     8091 1
   18714    13698    15237 1
   18715     9217     9779 1
   18716      929     1513 1
   18717     3795     4804 1
   18718     8456     8657 1
   18719     2003     1908 1
   18720    10106    10936 1
   18721    16283    17189 1
   18722     7675     7727 1
   18723    12791    13204 1
   18724    11035    11458 1
   18725    12831    13148 1
   18726    17026    17196 1
   18727     2199     2704 1
   18728       32      740 1
   18729    12685    14210 1
   18730    15672    16501 1
   18731     1083     1643 1
   18732     8506     8614 1
   18733     3041     2347 1
   18734    16004    16419 1
   18735     6213     6463 1
   18736     4630     5045 1
   18737    14144    14281 1
   18738    15559    16326 1
   18739    11030    11330 1
   18740     3773     4588 1
   18741    14604    15207 1
   18742     1404      125 1
   18743     3384     2339 1
   18744    12114    12125 1
   18745     2979     2531 1
   18746     5819     6444 1
   18747    10280    11261 1
   18748    12691    12857 1
   18749    14530    15371 1
   18750      522      596 1
   18751    12966    13198 1
   18752      906     1350 1
   18753     9204     9888 1
   18754    14319    14331 1
   18755    10727    11051 1
   18756     7504     9637 1
   18757     1186      456 1
   18758     1378      242 1
   18759     6180     6752 1
   18760     3975     4469 1
   18761     3997     4130 1
   18762     3602     3878 1
   18763    13886    14089 1
   18764    10558    10974 1
   18765     3539     2633 1
   18766    14657    14848 1
   18767    12165    12883 1
   18768     9606    10689 1
   18769    14097    15382 1
   18770    10507    11426 1
   18771     7912     9816 1
   18772    13356    13578 1
   18773    11722    11737 1
   18774    12721    13471 1
   18775     5774     5991 1
   18776     7187     9648 1
   18777     7902     9126 1
   18778    10062    11011 1
   18779    12891    13625 1
   18780    14910    15128 1
   18781     1579      190 1
   18782    12405    12798 1
   18783    10182    11114 1
   18784     8400     9276 1
   18785      935     1694 1
   18786     5561     6691 1
   18787    13613    13767 1
   18788    14064    15183 1
   18789     7303     7692 1
   18790     1157     1253 1
   18791     6486    11564 1
   18792     9255     9828 1
   18793    15748    15810 1
   18794      169      285 1
   18795    10186    11623 1
   18796     4999     5333 1
   18797    15444    16591 1
   18798     7876    10096 1
   18799     1037      153 1
   18800     5596     6314 1
   18801     3181     2671 1
   18802    14474    14853 1
   18803    10735    11572 1
   18804     3210     2620 1
   18805    16428    16449 1
   18806     8038     8423 1
   18807    14766    14879 1
   18808     7782     9387 1
   18809     3385     5314 1
   18810    15918    16721 1
   18811     8430     9293 1
   18812    10092    11587 1
   18813     1573      388 1
   18814     5390     6100 1
   18815    15919    16272 1
   18816    14064    15363 1
   18817     8338     8784 1
   18818    10910    11231 1
   18819    15150    15409 1
   18820     8911     7348 1
   18821    12607    13554 1
   18822    14001    14843 1
   18823     8731     9399 1
   18824    16240    16465 1
   18825      742     1540 1
   18826     7512     8073 1
   18827     6437    11308 1
   18828     4107     4555 1
   18829     8868     8179 1
   18830     8945     7577 1
   18831    10322    10545 1
   18832     1359      445 1
   18833     6004     6520 1
   18834    10842    11819 1
   18835     5954     6308 1
   18836    14248    15189 1
   18837     9052     7880 1
   18838    13990    14159 1
   18839     8826     9807 1
   18840     2757     2458 1
   18841    13954    14987 1
   18842     6165     6440 1
   18843     3794     4935 1
   18844     8704     9252 1
   18845     6263     6496 1
   18846     4819     4944 1
   18847     8312     8465 1
   18848     2369     2592 1
   18849     8672     9747 1
   18850    16358    16408 1
   18851    10834    11389 1
   18852    14681    15397 1
   18853    14873    15045 1
   18854     5392     5421 1
   18855      724      835 1
   18856     1038     1114 1
   18857       27       71 1
   18858      810      586 1
   18859     8259     9850 1
   18860    13386    13590 1
   18861     5090     5229 1
   18862     7196     9800 1
   18863     8950     7666 1
   18864    14637    15195 1
   18865     3758     4400 1
   18866    13715    13860 1
   18867     7858     8718 1
   18868    14123    14934 1
   18869     5637     7037 1
   18870    14490    15101 1
   18871     2776     1808 1
   18872    15185    15361 1
   18873     5572     6493 1
   18874     1402      260 1
   18875     2843     3201 1
   18876      725      884 1
   18877     3472     1859 1
   18878     8340     9831 1
   18879    10706    11338 1
   18880     8734    13814 1
   18881     7724     9434 1
   18882     1299      139 1
   18883     8697     9941 1
   18884     5501     8753 1
   18885     8960     7481 1
   18886    11278    11831 1
   18887     6604     7154 1
   18888     2986     4586 1
   18889     2270     2050 1
   18890    12628    12929 1
   18891     2768     2358 1
   18892     4397     5238 1
   18893     4214     4779 1
   18894    12181    13340 1
   18895    11923    13263 1
   18896     7548     9728 1
   18897     3944     4640 1
   18898    14861    15238 1
   18899     7302    10027 1
   18900     3261     2076 1
   18901    13791    14859 1
   18902     8026     8205 1
   18903     8322     8555 1
   18904     3920     4544 1
   18905     2022     1825 1
   18906     3627     4384 1
   18907     3864     4648 1
   18908     8007     8233 1
   18909    14762    14994 1
   18910     1986     2114 1
   18911     6356     6377 1
   18912      613     1358 1
   18913    13033    13521 1
   18914    13162    13529 1
   18915    15012    15090 1
   18916     7122     7822 1
   18917     4375     4386 1
   18918    12024    13011 1
   18919      708     4662 1
   18920    14649    14821 1
   18921     2210     2703 1
   18922     2435     2503 1
   18923    17130    17180 1
   18924    14021    14091 1
   18925     5648     6645 1
   18926     5975     6618 1
   18927     9226     9753 1
   18928    15841    16958 1
   18929     2211     2660 1
   18930    16813    17041 1
   18931    10655    11334 1
   18932     3722     5302 1
   18933     1791     2521 1
   18934     2158     2486 1
   18935    16252    16265 1
   18936    11882    12444 1
   18937     4221     4885 1
   18938    14149    14831 1
   18939     3799     4781 1
   18940     3571     2550 1
   18941     3358     2748 1
   18942     2819     1838 1
   18943    10911    11636 1
   18944    16646    16747 1
   18945     9004     8581 1
   18946    11068    11239 1
   18947       45       69 1
   18948    12403    13462 1
   18949     4188     4609 1
   18950    12063    12753 1
   18951     7448     9899 1
   18952     7525     7618 1
   18953    13889    14416 1
   18954    10633    11233 1
   18955     1309     1393 1
   18956     5582     6887 1
   18957    12298    12806 1
   18958    10358    11472 1
   18959     5645     6690 1
   18960    12681    13328 1
   18961    10515    11344 1
   18962     7195    10030 1
   18963     2355     2667 1
   18964    14021    15003 1
   18965     8943     7411 1
   18966    10189    15017 1
   18967     2848     2852 1
   18968    15529    15940 1
   18969     3254     2630 1
   18970    11884    12841 1
   18971    13731    14541 1
   18972     8601     8742 1
   18973    12274    13389 1
   18974     8572     9768 1
   18975      912     1178 1
   18976    16153    16828 1
   18977     3117     2546 1
   18978     8157     8603 1
   18979    10624    11164 1
   18980    13827    14446 1
   18981    12962    13088 1
   18982      695     1309 1
   18983    12655    13482 1
   18984     4174     4855 1
   18985     8490     9784 1
   18986     9114     9873 1
   18987    10326    10337 1
   18988     4395     4960 1
   18989    15790    16114 1
   18990    12951    13041 1
   18991    14330    15306 1
   18992     7976     9842 1
   18993     4787     4954 1
   18994     1978     1834 1
   18995    13830    15273 1
   18996     6670     6863 1
   18997     4665     4487 1
   18998    15833    16246 1
   18999     7352     9992 1
   19000    15840    16402 1
   19001    12690    13239 1
   19002     7357     8637 1
   19003     8863     7477 1
   19004     6356     7002 1
   19005     8991     9617 1
   19006     4461     5170 1
   19007    14217    14591 1
   19008     1853     1896 1
   19009    15564    16092 1
   19010      513     1637 1
   19011    12632    13077 1
   19012    10477    11671 1
   19013     8587     9506 1
   19014    12475    13432 1
   19015     3111     1921 1
   19016      638     1738 1
   19017    13921    15175 1
   19018     7509     9629 1
   19019     5595     6187 1
   19020     4037     4882 1
   19021    14748    15408 1
   19022     7810     8276 1
   19023     1073     1270 1
   19024     5923     6985 1
   19025    12042    13449 1
   19026    12066    12650 1
   19027    10232    11399 1
   19028    16481    16750 1
   19029     4153     5141 1
   19030    15443    16223 1
   19031      271      282 1
   19032     7446     8455 1
   19033    15813    16850 1
   19034    12206    12353 1
   19035    16096    16225 1
   19036      709     1416 1
   19037     1214      299 1
   19038     3057     2279 1
   19039    10282    10602 1
   19040     7453     9421 1
   19041    10455    11665 1
   19042     4287     4677 1
   19043    15935    16352 1
   19044    16272    16919 1
   19045    14192    14630 1
   19046     7756     9359 1
   19047    17001    17224 1
   19048     5569     5745 1
   19049    12368    12617 1
   19050     7487     8274 1
   19051     5769    11807 1
   19052     3988     5165 1
   19053     1793     1869 1
   19054    10472    10985 1
   19055     7221     9636 1
   19056     8645     8689 1
   19057    10444    11024 1
   19058    10523    11770 1
   19059    14624    14701 1
   19060     3466     1955 1
   19061    10976    11600 1
   19062    13687    14564 1
   19063     7630     9914 1
   19064     3450     2651 1
   19065    10412    11734 1
   19066     6226     6907 1
   19067     3263     3293 1
   19068    12086    13210 1
   19069     4749     5154 1
   19070     2954     1880 1
   19071     1198      395 1
   19072     5927     6830 1
   19073     8195     9538 1
   19074    11091    11427 1
   19075    15637    16210 1
   19076     2141     2411 1
   19077     5655     6606 1
   19078    11001    11806 1
   19079    10207    11092 1
   19080     3724     4314 1
   19081     1195      631 1
   19082      836      563 1
   19083     1401      172 1
   19084    14103    14715 1
   19085     8452     9616 1
   19086     4383     4452 1
   19087      620     6253 1
   19088     8928     9732 1
   19089     2384     2566 1
   19090    16446    17157 1
   19091     8666     9168 1
   19092    14061    14573 1
   19093    13331    13429 1
   19094     1626      124 1
   19095     7331     9144 1
   19096    15615    16218 1
   19097     3810     5177 1
   19098     2447     2575 1
   19099    14390    14411 1
   19100    11321    11654 1
   19101     9056     8404 1
   19102    10421    10921 1
   19103     5275    16686 1
   19104    13204    13349 1
   19105     4109     4788 1
   19106     3872     4777 1
   19107    15170    15299 1
   19108     8829     9839 1
   19109     5649     6758 1
   19110     2900     3304 1
   19111     8925    10055 1
   19112    12411    13224 1
   19113     1704    13093 1
   19114    10364    10933 1
   19115    16111    16711 1
   19116    14656    14953 1
   19117     5389     6073 1
   19118      835      407 1
   19119     7344     9666 1
   19120       61     1360 1
   19121     9302     9436 1
   19122    12510    17046 1
   19123     9046     9438 1
   19124     5507     6382 1
   19125    15722    17121 1
   19126    12627    13353 1
   19127     6395     7000 1
   19128     9504     9692 1
   19129     2049     2638 1
   19130    14226    14908 1
   19131     5554     6401 1
   19132    11873    12008 1
   19133    16922    17022 1
   19134    10218    11528 1
   19135     7390     7659 1
   19136     5778     6916 1
   19137    16217    16520 1
   19138     3113     3259 1
   19139     3797     4012 1
   19140      642     1777 1
   19141     7183     7966 1
   19142     8895     7408 1
   19143    16138    16994 1
   19144      959      176 1
   19145     7519     8853 1
   19146       20      403 1
   19147     7884     7948 1
   19148     7345    10047 1
   19149    14687    15420 1
   19150    15432    15510 1
   19151    10544    11418 1
   19152     9083     9265 1
   19153      974     1149 1
   19154      332      462 1
   19155     2953     2698 1
   19156    14187    14745 1
   19157    11276    11654 1
   19158     3115     2738 1
   19159    12028    13459 1
   19160     6200     6552 1
   19161     4567     4985 1
   19162    14034    14430 1
   19163     4192     4266 1
   19164     2921     1857 1
   19165     1271     1492 1
   19166     6722     6986 1
   19167    15445    15584 1
   19168    11085    11362 1
   19169     1032     1288 1
   19170     8519     8768 1
   19171     9062     7224 1
   19172    10850    10951 1
   19173     6150     6327 1
   19174     3345     2488 1
   19175     7830     7953 1
   19176     4417     5128 1
   19177    16118    16514 1
   19178     2156     2437 1
   19179     5577     6606 1
   19180     6020     6223 1
   19181     8186     9585 1
   19182     2927     2537 1
   19183    15898    16136 1
   19184    10402    11568 1
   19185    14563    14613 1
   19186     4058     4338 1
   19187     5423     6622 1
   19188    15635    16338 1
   19189      385      409 1
   19190    15773    17007 1
   19191     5702     6026 1
   19192     1256      563 1
   19193     4344     4962 1
   19194     6534     6941 1
   19195    15806    16489 1
   19196     5716     6755 1
   19197     3819     4960 1
   19198    15811    17128 1
   19199     1851     2635 1
   19200     3727    10068 1
   19201     6250     6999 1
   19202      971      389 1
   19203     6295     6514 1
   19204    11221    11280 1
   19205     5526     6487 1
   19206    15911    16909 1
   19207     8280     9152 1
   19208     7589     7792 1
   19209     3431     2494 1
   19210    11865    12346 1
   19211    12767    12817 1
   19212     4679     5023 1
   19213     4312     4766 1
   19214    10644    11555 1
   19215     7281     9791 1
   19216    10249    11452 1
   19217      481      123 1
   19218    12273    12777 1
   19219     6085     6193 1
   19220    10293    10660 1
   19221    10332    11057 1
   19222     6274     6628 1
   19223    10071    10091 1
   19224     7547     9996 1
   19225      440      463 1
   19226    12825    13161 1
   19227    14003    14705 1
   19228    15432    17086 1
   19229    10248    11708 1
   19230    16262    17000 1
   19231    13750    14968 1
   19232     7537     7944 1
   19233    15968    16949 1
   19234     4357     4660 1
   19235    13840    14303 1
   19236     9553     9961 1
   19237     4843     4947 1
   19238      793     1480 1
   19239     7455     7643 1
   19240     2232     1904 1
   19241     4201     4616 1
   19242      332      215 1
   19243    15925    16294 1
   19244     6251     6764 1
   19245     7187     8260 1
   19246     8244     8351 1
   19247     6610     6749 1
   19248     7706     8395 1
   19249    13800    14816 1
   19250      879     1514 1
   19251    15758    16032 1
   19252     8889     9261 1
   19253     7949     8466 1
   19254    15678    17021 1
   19255    13852    14869 1
   19256    15678    16431 1
   19257    14180    14196 1
   19258    13034    13537 1
   19259    15821    15889 1
   19260     5542     5904 1
   19261     8871     8489 1
   19262     3738     5180 1
   19263    16301    17062 1
   19264    15547    15932 1
   19265    10111    10471 1
   19266     6053     6900 1
   19267    13781    15128 1
   19268    15573    16524 1
   19269     8022     9323 1
   19270    10633    11622 1
   19271    12153    12583 1
   19272     7885     8273 1
   19273    11869    12798 1
   19274     5551     6943 1
   19275    12093    12775 1
   19276     3932     4103 1
   19277    16682    16821 1
   19278    12455    13540 1
   19279    11945    12983 1
   19280     6307     6331 1
   19281     7596     9087 1
   19282    10666    11413 1
   19283     6209     6761 1
   19284      995     1006 1
   19285     7788     8660 1
   19286      770     1304 1
   19287     6264     6714 1
   19288     2484     2674 1
   19289    16126    16958 1
   19290    13362    13501 1
   19291     7677     9190 1
   19292     8339     9873 1
   19293    15158    15211 1
   19294     8615     9815 1
   19295    13799    14883 1
   19296     2795     2969 1
   19297     1640      239 1
   19298      632      313 1
   19299     7713    10016 1
   19300       88     1097 1
   19301    14809    15022 1
   19302     2168     2351 1
   19303     8300     9979 1
   19304     3364     1974 1
   19305     8075     8529 1
   19306     8822     9733 1
   19307    14689    14926 1
   19308    11410    11450 1
   19309     7489     8604 1
   19310     3551     2728 1
   19311     3937     4083 1
   19312     1356      312 1
   19313     2313     2144 1
   19314    16761    17146 1
   19315     9749     9757 1
   19316     5480     5818 1
   19317     1819     2650 1
   19318     7238     7603 1
   19319     5385     5713 1
   19320     6559     6888 1
   19321     3947     4998 1
   19322     7623     8811 1
   19323    10550    11262 1
   19324    17077    17163 1
   19325    15463    16817 1
   19326     9475     9789 1
   19327    13875    14706 1
   19328    13697    14101 1
   19329    14237    15232 1
   19330     1287     1352 1
   19331    12562    12884 1
   19332     8763     9567 1
   19333     4713     4778 1
   19334     7414     9279 1
   19335    12464    12689 1
   19336    14324    15118 1
   19337    13649    14795 1
   19338     9478     9799 1
   19339    16161    16505 1
   19340      948      972 1
   19341     1709      292 1
   19342     7806     8373 1
   19343    12403    12751 1
   19344    12374    13440 1
   19345    14574    14654 1
   19346    15599    16600 1
   19347     2758     3558 1
   19348     8900     7718 1
   19349    12700    13025 1
   19350     1069      766 1
   19351     7728     9939 1
   19352    14623    14742 1
   19353     3919     4677 1
   19354    11107    11371 1
   19355     9064     8269 1
   19356     4205     5160 1
   19357    16673    16890 1
   19358    16148    16706 1
   19359    14878    15137 1
   19360    14474    14497 1
   19361     4025     4197 1
   19362    10133    10983 1
   19363     2286     1835 1
   19364     8929     7623 1
   19365    14447    14743 1
   19366     8994     8380 1
   19367     2781     2090 1
   19368      939     1018 1
   19369    11035    11520 1
   19370    12260    13395 1
   19371    12162    13303 1
   19372     6489     7110 1
   19373     9953     7576 1
   19374     3559     2261 1
   19375     1062    12082 1
   19376     3604     5192 1
   19377     7864     8749 1
   19378    12361    13109 1
   19379     4790     5236 1
   19380    11947    12701 1
   19381     9300     9729 1
   19382    14232    14898 1
   19383    16007    16980 1
   19384     8211     9176 1
   19385    13785    14678 1
   19386     3539     1815 1
   19387    15616    17130 1
   19388      949     1521 1
   19389    15601    16458 1
   19390    15681    15682 1
   19391     1245     1370 1
   19392    12077    12669 1
   19393    11922    12849 1
   19394     6251     6705 1
   19395    12108    12697 1
   19396     5621     5696 1
   19397     4639     5046 1
   19398     5974     6399 1
   19399    15510    15977 1
   19400    15696    17167 1
   19401      583     1755 1
   19402    15550    15911 1
   19403    10175    10714 1
   19404     4265     4926 1
   19405      104      862 1
   19406    16261    16342 1
   19407    15703    17107 1
   19408     7345     7748 1
   19409     4311     4892 1
   19410     8976    10667 1
   19411     7303     9089 1
   19412     5769     6569 1
   19413     6599     6918 1
   19414    12330    13128 1
   19415     3586     4667 1
   19416    13831    14654 1
   19417    13756    13849 1
   19418    14447    15275 1
   19419    14547    14816 1
   19420      638     1469 1
   19421    12453    16533 1
   19422     8238     9907 1
   19423    13845    13963 1
   19424    11885    12652 1
   19425     7540     8217 1
   19426    10726    17127 1
   19427     3035     2077 1
   19428    14730    15161 1
   19429     6129     7135 1
   19430     6072     6901 1
   19431    10937    11702 1
   19432    11844    12587 1
   19433     8919     8455 1
   19434     7581     9461 1
   19435     2810     2338 1
   19436     1197     7005 1
   19437      629     1443 1
   19438      871     1626 1
   19439     4243    11742 1
   19440    14005    14103 1
   19441     3914     4168 1
   19442     5582     6818 1
   19443     5540     6595 1
   19444    10274    11153 1
   19445     1610      165 1
   19446      573      461 1
   19447    16902    17107 1
   19448     7276     8007 1
   19449    11957    13165 1
   19450     3403     1968 1
   19451     7536     8512 1
   19452    15742    17137 1
   19453    13957    14297 1
   19454    10456    11068 1
   19455    15568    16234 1
   19456       96      532 1
   19457     1273      463 1
   19458     1276     1545 1
   19459     8048     9938 1
   19460    10487    11598 1
   19461     8728     9128 1
   19462     1391      355 1
   19463    14371    14956 1
   19464    10145    10177 1
   19465    11468    11670 1
   19466     5770     6338 1
   19467    13951    14282 1
   19468     6149    12053 1
   19469    15914    15972 1
   19470     8750     9729 1
   19471     3502     3552 1
   19472    13981    14744 1
   19473     3474     1873 1
   19474    15803    15903 1
   19475    16121    16610 1
   19476     7332    10000 1
   19477     3711     4407 1
   19478    12633    12808 1
   19479    12036    12851 1
   19480     4909     5189 1
   19481     5793     6881 1
   19482    10115    10318 1
   19483    10467    10538 1
   19484    15901    17176 1
   19485     4900     5281 1
   19486     5727     6226 1
   19487     9784     9814 1
   19488     8392     9663 1
   19489    15001    15422 1
   19490     7905     8295 1
   19491     4326     4442 1
   19492    16668    17138 1
   19493     7573     8104 1
   19494     4177     5200 1
   19495    14368    15401 1
   19496     5639     6387 1
   19497    13445    13626 1
   19498     1171      329 1
   19499     5406     5555 1
   19500     4557     4898 1
   19501     7202     7650 1
   19502    14539    14633 1
   19503     1171     1384 1
   19504     4331     4429 1
   19505    11175    11568 1
   19506    13859    14756 1
   19507     5040     5241 1
   19508    10714    11186 1
   19509    15699    16551 1
   19510      761     1464 1
   19511    12757    12934 1
   19512     8870     8400 1
   19513    15883    16055 1
   19514    16820    17142 1
   19515    15979    17088 1
   19516    13772    15661 1
   19517     4747     5171 1
   19518    10646    10832 1
   19519     3085     3469 1
   19520    13282    13476 1
   19521     9205     9851 1
   19522     6426     6430 1
   19523    15587    16655 1
   19524     5827     5914 1
   19525    16574    16639 1
   19526     1492      149 1
   19527    14176    17202 1
   19528     4136     4599 1
   19529    16560    16930 1
   19530    14163    15233 1
   19531     9940     9967 1
   19532     1550     1707 1
   19533     5837     7138 1
   19534     2601     2647 1
   19535    13870    14723 1
   19536     4219     4461 1
   19537    13291    13310 1
   19538     3918     4911 1
   19539     5559     6972 1
   19540     8978     9772 1
   19541    11010    11169 1
   19542     9487    11071 1
   19543     5943     6081 1
   19544     2955     3169 1
   19545     7540     8856 1
   19546     7727     7978 1
   19547     2163     2104 1
   19548      751      408 1
   19549     8433     9308 1
   19550    10854    11453 1
   19551     4354     5171 1
   19552     8183     8819 1
   19553    13716    14177 1
   19554    16048    16987 1
   19555     7659     9289 1
   19556     1305     1551 1
   19557     1870     2480 1
   19558     4813     5073 1
   19559     8428     9687 1
   19560    10206    10929 1
   19561     5399     5838 1
   19562    12067    12427 1
   19563     6198     6789 1
   19564     8377     8604 1
   19565     5667     7061 1
   19566    11746    11796 1
   19567    11845    12481 1
   19568    14109    15079 1
   19569    12461    13421 1
   19570    12144    13302 1
   19571    11865    12659 1
   19572     2999     2070 1
   19573     6199     6579 1
   19574     4008     4512 1
   19575    10879    11574 1
   19576    15826    16443 1
   19577     3777     4033 1
   19578    10611    11125 1
   19579      664      326 1
   19580     7429     8098 1
   19581     5525     6840 1
   19582    15682    16566 1
   19583    12444    13473 1
   19584    15924    16223 1
   19585    13674    14351 1
   19586      722     1717 1
   19587    14988    15251 1
   19588     1080     1341 1
   19589     3266     3453 1
   19590     9175     9311 1
   19591     8148     9100 1
   19592    14602    15468 1
   19593     5745     6923 1
   19594     2293     2599 1
   19595    13769    14588 1
   19596    13903    14445 1
   19597    12964    13092 1
   19598    14310    15059 1
   19599     3160     2124 1
   19600    13736    14497 1
   19601     6306     6409 1
   19602     3996     4493 1
   19603    15352    15415 1
   19604     7437     8506 1
   19605     5875     6009 1
   19606     5654     6555 1
   19607     5642     6168 1
   19608    13838    14543 1
   19609     1295     1784 1
   19610    13807    14120 1
   19611     2339     2628 1
   19612     9271     9597 1
   19613    16179    16571 1
   19614     6006     7011 1
   19615     2286     2502 1
   19616    15617    17013 1
   19617     3114     1902 1
   19618    12555    12708 1
   19619     2946     3403 1
   19620     4229     4623 1
   19621     3837     4797 1
   19622     3859     4702 1
   19623     4423     5325 1
   19624    10145    10487 1
   19625    10998    11378 1
   19626    15929    15998 1
   19627    12842    13402 1
   19628    13765    14531 1
   19629    13692    13726 1
   19630     3115     2238 1
   19631     7943    10024 1
   19632     1275     1426 1
   19633      658      120 1
   19634    13941    14504 1
   19635    10320    10539 1
   19636    12895    13091 1
   19637     1168      609 1
   19638     1525      412 1
   19639    15506    16857 1
   19640     2214     2461 1
   19641     2782     1827 1
   19642     7294     7324 1
   19643     6639     6906 1
   19644     8060     8693 1
   19645     3652     5334 1
   19646    15586    15794 1
   19647     8632     9720 1
   19648     3597     5194 1
   19649    13919    14921 1
   19650    13854    13980 1
   19651    15687    16941 1
   19652     1934     2429 1
   19653     1136     1561 1
   19654     8165     9196 1
   19655     3274     1809 1
   19656     3517     2053 1
   19657    15660    16426 1
   19658     7480     9121 1
   19659     3969     4633 1
   19660    15720    16685 1
   19661     4172     4553 1
   19662    11971    12900 1
   19663     7374     9830 1
   19664     5401     6946 1
   19665     6071     7045 1
   19666      870      390 1
   19667    10363    10796 1
   19668     7158     8138 1
   19669    12942    14181 1
   19670     6594     7086 1
   19671    13883    13928 1
   19672     8215     8714 1
   19673    16429    16848 1
   19674     2799     2718 1
   19675     5777     6960 1
   19676     7187     8598 1
   19677    12026    13068 1
   19678    13948    14165 1
   19679    15436    15805 1
   19680      865     1315 1
   19681     4259     4654 1
   19682    10782    11361 1
   19683     6119     6972 1
   19684     8978     7835 1
   19685     4039     4440 1
   19686      712      817 1
   19687    12039    13242 1
   19688    10678    11841 1
   19689     1608    13039 1
   19690      825     1522 1
   19691    13850    14735 1
   19692    12851    13538 1
   19693    14361    14704 1
   19694    10871    11753 1
   19695      666     5181 1
   19696    15994    16389 1
   19697     8444     9759 1
   19698     7620     8382 1
   19699      980     1004 1
   19700    14095    15121 1
   19701      694     1525 1
   19702     6842     6939 1
   19703    12755    13024 1
   19704    13975    14281 1
   19705    14018    14780 1
   19706    15758    16273 1
   19707     7188     7519 1
   19708     5937     5948 1
   19709     1711      369 1
   19710    13126    13487 1
   19711    13950    15022 1
   19712    14107    14461 1
   19713    13815    14815 1
   19714     8336     8423 1
   19715    12269    12277 1
   19716    11983    13140 1
   19717    14437    15366 1
   19718     3470     1954 1
   19719    14126    14847 1
   19720     4133     4834 1
   19721    13959    15280 1
   19722     4491     5279 1
   19723    15558    15578 1
   19724    13722    15014 1
   19725     7163     7618 1
   19726    10429    11536 1
   19727    15836    16935 1
   19728     3483     2600 1
   19729     8510     8631 1
   19730     9052     9658 1
   19731     7460     9813 1
   19732    15576    17166 1
   19733     3060     2148 1
   19734     2811     3242 1
   19735     7666     8167 1
   19736    13189    13232 1
   19737     1113      505 1
   19738    15655    15978 1
   19739    10609    11083 1
   19740     3034     3116 1
   19741    14453    15333 1
   19742     3890     4848 1
   19743     5480     5809 1
   19744     8515     9301 1
   19745      532     1542 1
   19746     3128     2652 1
   19747     3687     4602 1
   19748     4043     4861 1
   19749     2841     3460 1
   19750    10621    10638 1
   19751    13637    15286 1
   19752    12246    12639 1
   19753    15996    16628 1
   19754     9913     9952 1
   19755     3539     2525 1
   19756     5530     7090 1
   19757    12914    13631 1
   19758     6161     6536 1
   19759     8441     9483 1
   19760     3204     1955 1
   19761    10315    11630 1
   19762     1987     1809 1
   19763      828     1550 1
   19764    11200    11728 1
   19765     2757     1997 1
   19766     8912     7412 1
   19767    15644    16671 1
   19768    15496    15901 1
   19769    16136    17104 1
   19770     8970     9832 1
   19771     4144     5151 1
   19772    15814    16437 1
   19773     8401     9501 1
   19774    12060    12989 1
   19775     2850     2511 1
   19776    16208    16855 1
   19777       87      394 1
   19778     8496     9309 1
   19779    14406    14826 1
   19780    13844    14976 1
   19781     1902     2545 1
   19782    14178    15413 1
   19783     8937     9353 1
   19784     2045     2407 1
   19785    16706    17078 1
   19786    10323    10670 1
   19787     1157      551 1
   19788    16745    16829 1
   19789      878     1496 1
   19790     8421     9926 1
   19791    14601    15223 1
   19792     5577     6509 1
   19793    10198    11780 1
   19794     8215     8643 1
   19795     7376     7976 1
   19796     5120     5278 1
   19797    15786    17119 1
   19798     5857     6222 1
   19799     5479     7032 1
   19800    11001    11817 1
   19801     2951     3392 1
   19802     7341     9099 1
   19803    16158    16314 1
   19804    12065    13072 1
   19805     8426     8646 1
   19806    13928    15340 1
   19807     3996     4914 1
   19808    14856    15105 1
   19809    10999    11282 1
   19810      791      492 1
   19811     3250     2053 1
   19812     5399     6360 1
   19813     3742     4202 1
   19814     5392    12444 1
   19815    10305    10722 1
   19816    12071    12963 1
   19817     7230     7924 1
   19818     6114     6505 1
   19819    16334    16429 1
   19820    13808    14411 1
   19821     2055     2577 1
   19822    14767    15139 1
   19823     3392     2181 1
   19824     3709     4901 1
   19825     8979     8119 1
   19826    10862    11666 1
   19827     3173     2603 1
   19828     4070     4750 1
   19829     5400     6170 1
   19830    10654    11028 1
   19831    15584    15592 1
   19832     6125     6599 1
   19833    12402    12868 1
   19834     2958     3074 1
   19835    15185    15344 1
   19836    10350    11755 1
   19837     6531     7015 1
   19838     9483     9509 1
   19839     1221      246 1
   19840    15653    16642 1
   19841     3961     4440 1
   19842     9081     9909 1
   19843    16474    16997 1
   19844     7773     7986 1
   19845     4262     4749 1
   19846    10545    11056 1
   19847      598      262 1
   19848     7802     7981 1
   19849      559      318 1
   19850     7532     7711 1
   19851     4317     4524 1
   19852    11011    11382 1
   19853    14258    15020 1
   19854     1219     1247 1
   19855     4145     4991 1
   19856     6664     6878 1
   19857    12229    12846 1
   19858    11567    11825 1
   19859     4311     4644 1
   19860    15983    16848 1
   19861     2756     2304 1
   19862     6160     6708 1
   19863    16896    17156 1
   19864     8084     8127 1
   19865     2167     2048 1
   19866     2279     2573 1
   19867     5966     6860 1
   19868     8680     9852 1
   19869    12495    13263 1
   19870     6123     6696 1
   19871     6317     6694 1
   19872     6179     6192 1
   19873     7381     7483 1
   19874    13838    14772 1
   19875     4033     4148 1
   19876     7746     8205 1
   19877      793     1459 1
   19878     1337      214 1
   19879      880     1775 1
   19880     5520     5727 1
   19881    16151    16588 1
   19882     4076     5354 1
   19883     3784     3830 1
   19884     4412     5082 1
   19885    14666    15094 1
   19886    13712    14144 1
   19887    10778    11316 1
   19888     1061      486 1
   19889      735      575 1
   19890    11847    12896 1
   19891     3774     5308 1
   19892     8532     8706 1
   19893    10160    11405 1
   19894     7681     9280 1
   19895    16676    17226 1
   19896     8962     7905 1
   19897     7223     9999 1
   19898    10576    10651 1
   19899     5449     6142 1
   19900     8334     8650 1
   19901    11868    13153 1
   19902    13000    13382 1
   19903     8459     9660 1
   19904    13120    13140 1
   19905     8995     9389 1
   19906     2780     3351 1
   19907    12522    13273 1
   19908     3882     4312 1
   19909     7379     9947 1
   19910    10634    10978 1
   19911    11941    12258 1
   19912       37      186 1
   19913     2394     2623 1
   19914     9034     9403 1
   19915     7685     8105 1
   19916     4195     5053 1
   19917    10067    10759 1
   19918     5590     6480 1
   19919     1671     1468 1
   19920     5862     6471 1
   19921     4320     5006 1
   19922     5906     6238 1
   19923    16237    16396 1
   19924    14526    15235 1
   19925     7182     7395 1
   19926     5894     6906 1
   19927    13633    14337 1
   19928     3913     4647 1
   19929     8231     9383 1
   19930     1241      540 1
   19931     3707     4356 1
   19932    16038    17168 1
   19933    13016    13131 1
   19934    14220    15323 1
   19935    12568    13074 1
   19936     3463     2682 1
   19937     4332     5328 1
   19938       31     1045 1
   19939    11430    11612 1
   19940    10587    11649 1
   19941     5655     7051 1
   19942     1874     2564 1
   19943     8381     9647 1
   19944     3103     2315 1
   19945      945     1326 1
   19946    16190    17125 1
   19947      882     1628 1
   19948     2790     1864 1
   19949    14164    14914 1
   19950    13745    14334 1
   19951     3076     2245 1
   19952     2442     2559 1
   19953    16058    16818 1
   19954     4678     5214 1
   19955    13765    15207 1
   19956     9326     9765 1
   19957    10464    11260 1
   19958     7592     8512 1
   19959     9036     7962 1
   19960    10399    11625 1
   19961     7386     8226 1
   19962     1095      301 1
   19963    10375    10437 1
   19964     1341      167 1
   19965      893     1400 1
   19966     1273      324 1
   19967     5637     6160 1
   19968     6018     7029 1
   19969    10086    10482 1
   19970    14514    14564 1
   19971    10401    10566 1
   19972    13457    13477 1
   19973    12277    13394 1
   19974    12798    13172 1
   19975     9509     9670 1
   19976     1799     2485 1
   19977       79     1205 1
   19978     7970     9855 1
   19979     4501     5116 1
   19980      905      795 1
   19981    15686    17118 1
   19982    14145    15273 1
   19983     9021     7352 1
   19984    13197    13627 1
   19985      994      233 1
   19986     3477    14302 1
   19987    15851    16507 1
   19988     7462     9845 1
   19989     3688     3787 1
   19990    10364    10832 1
   19991    15989    16332 1
   19992    10916    11177 1
   19993     3013     3284 1
   19994     1163     1666 1
   19995    13810    14871 1
   19996     7574     8210 1
   19997    14392    15392 1
   19998     5491     5549 1
   19999     2895     2502 1
   20000     3126     1951 1
   20001     8871     7458 1
   20002     6253     6338 1
   20003    13924    14835 1
   20004    14325    14990 1
   20005     4715     5308 1
   20006    12921    13598 1
   20007       13     1245 1
   20008    10278    10969 1
   20009     7781     8052 1
   20010    16139    16802 1
   20011     6000     6530 1
   20012     1129     1316 1
   20013     8736     9337 1
   20014      840     1425 1
   20015     3874     4894 1
   20016     7161     7282 1
   20017     5475     5926 1
   20018     9019     9536 1
   20019    16440    16819 1
   20020     5413     7090 1
   20021     5511     6679 1
   20022     7826     8557 1
   20023    14592    15153 1
   20024     9062     7450 1
   20025    12875    13606 1
   20026     4232     4349 1
   20027    14361    14710 1
   20028     4891     5072 1
   20029     4591     5153 1
   20030     1172     1577 1
   20031     8681     9238 1
   20032      717     1456 1
   20033     7389     9601 1
   20034    10582    11380 1
   20035     2540     2639 1
   20036    16862    17197 1
   20037     3537     1911 1
   20038    14934    15423 1
   20039     8878     7205 1
   20040    12693    12796 1
   20041    15555    16545 1
   20042    10990    11347 1
   20043    12144    13046 1
   20044     7274     9485 1
   20045     6048     6393 1
   20046     3962     5162 1
   20047     8652     9556 1
   20048      976      518 1
   20049    15858    17112 1
   20050    13708    14129 1
   20051     7583     8206 1
   20052     7253     7454 1
   20053    10293    16494 1
   20054     6689     6916 1
   20055    15541    17193 1
   20056     4730     4827 1
   20057    16255    17185 1
   20058     3893     3930 1
   20059    14473    15253 1
   20060     9236     9726 1
   20061    12237    13565 1
   20062     5751     6228 1
   20063     3658     4121 1
   20064     8821     9723 1
   20065     2163     1958 1
   20066     9068     7309 1
   20067    10639    10854 1
   20068     6213     6830 1
   20069     9016     8637 1
   20070    10460    10949 1
   20071     8931     7196 1
   20072     8429     8450 1
   20073      791      830 1
   20074     5618     5690 1
   20075    10711    11150 1
   20076     5655     6510 1
   20077    15070    15343 1
   20078    11859    12634 1
   20079    14563    15037 1
   20080    12492    13152 1
   20081     3867     5274 1
   20082     4747     4863 1
   20083    10079    10085 1
   20084    15950    16702 1
   20085     6665     7153 1
   20086     7565     7693 1
   20087     4314     4668 1
   20088    16420    16759 1
   20089     5856     6151 1
   20090    14523    14718 1
   20091     6618     6977 1
   20092      516      331 1
   20093     5481     5863 1
   20094    12776    12994 1
   20095     4384     4496 1
   20096    14307    14991 1
   20097     3595     3601 1
   20098     8690     9444 1
   20099     1075      422 1
   20100     7206     8390 1
   20101     6077     6263 1
   20102      172      213 1
   20103    15875    16293 1
   20104     7589     8808 1
   20105     8328    11071 1
   20106     3465     2136 1
   20107     3147     3486 1
   20108    13727    14808 1
   20109    10144    10839 1
   20110     5434     6961 1
   20111     7185     8304 1
   20112    17068    17148 1
   20113    11128    11323 1
   20114     8036     8376 1
   20115     8447     9911 1
   20116     7523     9231 1
   20117     7598     9198 1
   20118      735     1763 1
   20119     7571     7613 1
   20120     4412     5057 1
   20121    15984    16751 1
   20122     7611     9253 1
   20123    16293    16554 1
   20124     2992     2010 1
   20125     7707     8379 1
   20126      772     1241 1
   20127     3121     1847 1
   20128     7362    13221 1
   20129    14308    15017 1
   20130     8940     8296 1
   20131     5818     6548 1
   20132      493      143 1
   20133     1587      251 1
   20134     3528     1599 1
   20135     7402     9078 1
   20136    10519    10702 1
   20137     8593     9855 1
   20138      905      716 1
   20139    16794    17056 1
   20140     5671     6238 1
   20141      720     1392 1
   20142    16020    16936 1
   20143     7600     8006 1
   20144     3543     1899 1
   20145    15916    16197 1
   20146    10087    11735 1
   20147     1952     2400 1
   20148     5010     5116 1
   20149    14358    14947 1
   20150     4821     4606 1
   20151     7804     8594 1
   20152     3806     5053 1
   20153    15711    16580 1
   20154     5624     7053 1
   20155     7807     9370 1
   20156    12688    12763 1
   20157      858      265 1
   20158      114      214 1
   20159     8984     7275 1
   20160    11150    11698 1
   20161    10628    10941 1
   20162     7937     9458 1
   20163     7250     8570 1
   20164    13752    14078 1
   20165     7892     8267 1
   20166     1170     1633 1
   20167    10611    11163 1
   20168     4163     5257 1
   20169     2783     3344 1
   20170     3811     4714 1
   20171     5530     5989 1
   20172     8238     8744 1
   20173    12480    12737 1
   20174     4323     4730 1
   20175     1199     1343 1
   20176    15510    15650 1
   20177     8568     9579 1
   20178      627     1404 1
   20179     1413      428 1
   20180    14901    15112 1
   20181     3260     2031 1
   20182    12430    12671 1
   20183    13730    14046 1
   20184    16353    16498 1
   20185    11990    12933 1
   20186       83      536 1
   20187     7714     9150 1
   20188     3943     4227 1
   20189    13118    13387 1
   20190    14835    15168 1
   20191    14853    15411 1
   20192     2906     1852 1
   20193    12361    12952 1
   20194     7470     8834 1
   20195     4066     4363 1
   20196     3733     4628 1
   20197    14757    15319 1
   20198     1324      188 1
   20199     2044     2560 1
   20200    15029    15404 1
   20201    14320    15422 1
   20202     3974     4638 1
   20203     2974     3037 1
   20204     1106     1644 1
   20205     6268     6712 1
   20206     6046     6443 1
   20207     2260     2730 1
   20208     4277     5056 1
   20209    14667    14948 1
   20210    12439    12824 1
   20211     7558     9740 1
   20212     6845     7030 1
   20213    15600    16118 1
   20214     3455     1901 1
   20215    14210    14561 1
   20216    15959    16861 1
   20217     6596     7068 1
   20218      886    13471 1
   20219    13207    13475 1
   20220    10102    11214 1
   20221     9406     9694 1
   20222    16908    16968 1
   20223     5425     6967 1
   20224      872      675 1
   20225     2064     2450 1
   20226     8801     9792 1
   20227     8307     9655 1
   20228    15565    16728 1
   20229    10001    10008 1
   20230     1242      483 1
   20231    16367    16586 1
   20232     2083     2549 1
   20233     5381     6438 1
   20234     3133     2108 1
   20235    10537    11299 1
   20236     9160     9524 1
   20237    12009    12967 1
   20238     2642     2724 1
   20239     1100      888 1
   20240     1025     1111 1
   20241    16168    17059 1
   20242     5408     6648 1
   20243    10818    10886 1
   20244     3448     1822 1
   20245    13837    14903 1
   20246    14158    14236 1
   20247    15580    16473 1
   20248    16342    16630 1
   20249    15618    16044 1
   20250     6252     6665 1
   20251     3456     2582 1
   20252    16003    16318 1
   20253    12229    12342 1
   20254     5179    10214 1
   20255     1659     1519 1
   20256    13884    14063 1
   20257    10400    11160 1
   20258    16518    17096 1
   20259     8418     9239 1
   20260     4509     4930 1
   20261    10606    11211 1
   20262    14679    14871 1
   20263     4261     4603 1
   20264     5510     7097 1
   20265     7697     8689 1
   20266     1095     1453 1
   20267    16216    16463 1
   20268      776     1419 1
   20269     9317    14923 1
   20270     2867     2476 1
   20271    12678    12884 1
   20272     4210     4468 1
   20273     2873     1991 1
   20274     5959     6644 1
   20275    12407    13308 1
   20276    10063    10344 1
   20277    12586    13383 1
   20278    10383    10623 1
   20279     4770    11660 1
   20280    14820    15049 1
   20281     1231     1604 1
   20282    12396    12868 1
   20283     8932     8849 1
   20284     3135     2685 1
   20285     3766     4724 1
   20286     3797     4161 1
   20287     5649     6801 1
   20288     1491      290 1
   20289     1067      875 1
   20290     3275     2638 1
   20291    11870    11916 1
   20292    15713    16479 1
   20293     8107     9932 1
   20294    10081    11011 1
   20295      904     1617 1
   20296     1012      397 1
   20297    10748    11404 1
   20298    12742    12813 1
   20299     3779     5234 1
   20300    12025    12327 1
   20301     1667      362 1
   20302     7778     9806 1
   20303    10360    11746 1
   20304     3606     4313 1
   20305     5862     5951 1
   20306     5798     6922 1
   20307    14307    14507 1
   20308     6298     6434 1
   20309       53      963 1
   20310      818      325 1
   20311     6481     7049 1
   20312     4686     4527 1
   20313     5801     6422 1
   20314    11688    17209 1
   20315    16243    16416 1
   20316     6242     7016 1
   20317    14993    15422 1
   20318     4910     5110 1
   20319    10064    10983 1
   20320    10529    11003 1
   20321     7224     9805 1
   20322     4154     4495 1
   20323     4129     4599 1
   20324     3571     2124 1
   20325     6358     6930 1
   20326    14277    15092 1
   20327     7473     7857 1
   20328    14201    14650 1
   20329     6659     7103 1
   20330     7323     9959 1
   20331    11386    11671 1
   20332     2406     2630 1
   20333     1956     1997 1
   20334    15566    16586 1
   20335     5052     5234 1
   20336    14850    14950 1
   20337     1012     1280 1
   20338      741      151 1
   20339     2967     2641 1
   20340     3138     2459 1
   20341     7497     9495 1
   20342     2334     1906 1
   20343    10675    16325 1
   20344     7343     9876 1
   20345    16948    17209 1
   20346    13009    13065 1
   20347    10149    11552 1
   20348    11999    12892 1
   20349     2858     3375 1
   20350     5958     6334 1
   20351     2348     2738 1
   20352     3914     4239 1
   20353      509      216 1
   20354     8924     8386 1
   20355     5727     6590 1
   20356    10815    11740 1
   20357     3588     4978 1
   20358     7913     9674 1
   20359     5366     6390 1
   20360     9323     9706 1
   20361     4903     5047 1
   20362     4698     4930 1
   20363    16412    16942 1
   20364    12681    13058 1
   20365     8977     8230 1
   20366     3070     2433 1
   20367    16456    16958 1
   20368     9063     8580 1
   20369     3205     1917 1
   20370    12821    13352 1
   20371    16340    16784 1
   20372    13844    15309 1
   20373     4385     5209 1
   20374    14765    15379 1
   20375    14810    15212 1
   20376    13831    15047 1
   20377     7234     9958 1
   20378    10417    10738 1
   20379    11298    11422 1
   20380    15522    15805 1
   20381     5575     5722 1
   20382     1596      416 1
   20383     1215      396 1
   20384    14026    15241 1
   20385    11541    11735 1
   20386    12856    16636 1
   20387     7239     8691 1
   20388     9263     9497 1
   20389    12281    13401 1
   20390    14640    15004 1
   20391       36     1381 1
   20392       31      712 1
   20393    12276    12804 1
   20394    15660    16915 1
   20395    12317    12790 1
   20396    16091    17116 1
   20397    12030    13121 1
   20398     5450     5864 1
   20399     3684     4761 1
   20400    16190    16289 1
   20401    15651    15869 1
   20402     3674     3877 1
   20403    12016    13188 1
   20404    12200    12323 1
   20405    15620    16585 1
   20406     1936     2524 1
   20407    10521    11839 1
   20408    15680    16653 1
   20409     5529     6607 1
   20410     3678     4040 1
   20411    11322    11425 1
   20412    10418    11123 1
   20413     3124     2399 1
   20414    10404    11745 1
   20415    13327    14880 1
   20416     6727     7150 1
   20417    11504    11745 1
   20418    12441    12861 1
   20419     6759     7003 1
   20420      780      181 1
   20421    13501    13570 1
   20422    13877    15323 1
   20423    12889    13155 1
   20424     8062     8646 1
   20425    11881    13143 1
   20426     4806     4613 1
   20427    13213    13216 1
   20428     2119     2523 1
   20429     3292     2044 1
   20430     2296     1977 1
   20431     5917     6083 1
   20432     3706     5142 1
   20433    11950    13578 1
   20434     3147     3290 1
   20435    14932    15133 1
   20436    13811    15182 1
   20437      898      638 1
   20438    10269    10387 1
   20439     7613     8124 1
   20440    12089    13063 1
   20441     8855     9591 1
   20442     3261     2510 1
   20443    13980    15330 1
   20444     5514     6167 1
   20445     3267     2159 1
   20446     2867     7527 1
   20447     3185     3213 1
   20448     7351     7801 1
   20449    12150    13537 1
   20450    12221    12898 1
   20451     6179     6833 1
   20452    14017    15386 1
   20453    15679    15698 1
   20454    10347    11303 1
   20455     6472     7137 1
   20456    12438    13123 1
   20457    13865    15320 1
   20458      821     1175 1
   20459    15774    16041 1
   20460     4177     4865 1
   20461    10230    10544 1
   20462     8864     9310 1
   20463     3785     4447 1
   20464    12286    12628 1
   20465    13883    14857 1
   20466    10925    11395 1
   20467      912     1196 1
   20468    12709    12928 1
   20469     8450     9755 1
   20470     4524     4946 1
   20471     5489     5556 1
   20472    16016    16386 1
   20473     7917     9268 1
   20474     5959     6381 1
   20475    14830    15331 1
   20476     3670     4107 1
   20477    12328    12609 1
   20478    12346    12761 1
   20479    10096    11055 1
   20480     2222     2722 1
   20481     6520     6903 1
   20482     7851     9731 1
   20483     5900     6171 1
   20484     3853     4240 1
   20485     2630     2709 1
   20486    10980    11451 1
   20487     5588     5968 1
   20488     4520     4562 1
   20489     3009     3106 1
   20490    14121    14670 1
   20491     5823     5934 1
   20492    12420    12765 1
   20493    16842    16889 1
   20494    14258    15090 1
   20495      596      148 1
   20496     1249      543 1
   20497     5956     7142 1
   20498     4785     4886 1
   20499     4932     5190 1
   20500    14153    14961 1
   20501     3968     4789 1
   20502     5006     5277 1
   20503    16194    16892 1
   20504      736     1315 1
   20505    14473    14977 1
   20506     5693     6049 1
   20507    16054    17225 1
   20508    15751    16784 1
   20509     5363     5799 1
   20510     5382     6311 1
   20511     3447     2302 1
   20512    14387    15333 1
   20513    13931    15071 1
   20514    12561    13299 1
   20515    12369    13170 1
   20516     3087     3572 1
   20517    15782    16062 1
   20518     3022     2208 1
   20519     1276      679 1
   20520     4364     4597 1
   20521    11954    13030 1
   20522     3305     2729 1
   20523     2174     2751 1
   20524     5445     6056 1
   20525     1121      228 1
   20526    12171    13602 1
   20527     8936     7742 1
   20528    15509    16920 1
   20529     3658     4654 1
   20530     3182     2001 1
   20531     2932     2079 1
   20532     7423     9874 1
   20533     6396     6610 1
   20534      648     1310 1
   20535     3076     2386 1
   20536    12822    13248 1
   20537    15788    16154 1
   20538    15482    15709 1
   20539    16570    16994 1
   20540    12410    12422 1
   20541    10592    11568 1
   20542     5568     6451 1
   20543    10408    11603 1
   20544     6491     6868 1
   20545    14089    14930 1
   20546     8490     9328 1
   20547     3661     3966 1
   20548    13978    14638 1
   20549     1280     1456 1
   20550     2171     2285 1
   20551    10393    11696 1
   20552     6507     6796 1
   20553    13673    14106 1
   20554    10427    11123 1
   20555     3622     3625 1
   20556     8114     8138 1
   20557     7440     8647 1
   20558     3163     3345 1
   20559    15003    15268 1
   20560    11857    12539 1
   20561    15932    17213 1
   20562     3927     4203 1
   20563     8310     9503 1
   20564     2218      168 1
   20565    11439    11840 1
   20566    11847    12282 1
   20567     7705     9698 1
   20568    10585    10927 1
   20569    12146    13161 1
   20570    10806    11451 1
   20571    15824    16632 1
   20572     4031     1093 1
   20573     2799     1984 1
   20574     2090     1814 1
   20575     3842     4106 1
   20576     8907     7795 1
   20577     7566     9718 1
   20578    15875    16795 1
   20579    13059    13290 1
   20580     3044     2384 1
   20581    12882    13074 1
   20582    10653    11469 1
   20583    12162    13125 1
   20584     5583     6164 1
   20585     3973     4422 1
   20586    15509    15657 1
   20587     7680     9733 1
   20588     4526     5284 1
   20589     1433     1772 1
   20590     6580     6812 1
   20591    15839    16435 1
   20592     6189     6930 1
   20593    12698    13574 1
   20594    13881    14298 1
   20595     8902     7981 1
   20596     5620     7048 1
   20597     8174     9670 1
   20598     4732     5055 1
   20599    11879    13223 1
   20600     1032      296 1
   20601     8743     9795 1
   20602     8465     8756 1
   20603     7641     9715 1
   20604     5754     6038 1
   20605     7300     8654 1
   20606    12456    12878 1
   20607    10393    11158 1
   20608     1746      239 1
   20609     6290     6909 1
   20610     2368     2580 1
   20611    14591    14711 1
   20612    10506    11160 1
   20613    12380    12632 1
   20614     3542     1832 1
   20615     7250     9221 1
   20616    14287    14732 1
   20617     8150     9251 1
   20618    11449    11556 1
   20619     7599     8048 1
   20620     1086      240 1
   20621     4027     4896 1
   20622    10388    11836 1
   20623      996      876 1
   20624     5677     6675 1
   20625     5735     6627 1
   20626    14389    14557 1
   20627     7893     9987 1
   20628     2198     2627 1
   20629    13861    15357 1
   20630    12163    13226 1
   20631    12064    13138 1
   20632     3754     4057 1
   20633     4807     5273 1
   20634     6005     6821 1
   20635    14914    15063 1
   20636     8924     9857 1
   20637     6907     7115 1
   20638     4027     4843 1
   20639     4102     4179 1
   20640     2752     2728 1
   20641     3344     2553 1
   20642     7364     9450 1
   20643     3815     4952 1
   20644     4595     5074 1
   20645     2443     2645 1
   20646    15864    17061 1
   20647    11492    11685 1
   20648     5731     6608 1
   20649     5478     6122 1
   20650    14429    14540 1
   20651     2921     2365 1
   20652    10654    11080 1
   20653    13796    14763 1
   20654     4129    10747 1
   20655    13689    14738 1
   20656     3800     5008 1
   20657    12797    12955 1
   20658     9296     9587 1
   20659     2940     1881 1
   20660     2591     2730 1
   20661    12546    13259 1
   20662    16077    16890 1
   20663     7569     9456 1
   20664    14099    14960 1
   20665    16071    16129 1
   20666     5625     6174 1
   20667     1953     2413 1
   20668     5477     7035 1
   20669     1732      344 1
   20670     3289     3340 1
   20671    13661    15389 1
   20672     6124     7112 1
   20673    10122    10246 1
   20674    15769    17051 1
   20675     2314     2004 1
   20676     5435     5755 1
   20677      916     1738 1
   20678    16452    16750 1
   20679    13880    14696 1
   20680     4784    10754 1
   20681      837     1682 1
   20682    10823    11289 1
   20683    10164    11063 1
   20684     4358     4641 1
   20685     7791     8186 1
   20686      825      624 1
   20687     2963     3468 1
   20688    13696    14490 1
   20689     4149     4556 1
   20690     1459      300 1
   20691     7955    10017 1
   20692    14729    15258 1
   20693     5014     5085 1
   20694    13642    14101 1
   20695     3286     5315 1
   20696    15122    15185 1
   20697    12023    13074 1
   20698    12072    12960 1
   20699    10698    10710 1
   20700     8284     8855 1
   20701     1629     1781 1
   20702     1251     7070 1
   20703     7394     8391 1
   20704    10077    11049 1
   20705     5807     6414 1
   20706     1933     2379 1
   20707     9012     7414 1
   20708     7464     8334 1
   20709    15555    15622 1
   20710     6233     6376 1
   20711     2631     2692 1
   20712     3655     4086 1
   20713    12421    12490 1
   20714     3057     2531 1
   20715     2873     2058 1
   20716     3629     4079 1
   20717    12710    13469 1
   20718    12127    13168 1
   20719       31      426 1
   20720     1017     4996 1
   20721    13143    13630 1
   20722     9446     9777 1
   20723     4212     4270 1
   20724    10320    10391 1
   20725    12259    13437 1
   20726       94     1500 1
   20727     2453     2561 1
   20728     8671     9227 1
   20729      549      313 1
   20730     8566     9766 1
   20731     1066      402 1
   20732     4719     5247 1
   20733     2278     1816 1
   20734     2900     2344 1
   20735     5668     6570 1
   20736     2931     2000 1
   20737    11185    11556 1
   20738    14168    15231 1
   20739     7335     8001 1
   20740      741      191 1
   20741    14815    14966 1
   20742     9189     9656 1
   20743    14197    14832 1
   20744     1690     1501 1
   20745     3199     2209 1
   20746     7609     9669 1
   20747      867      514 1
   20748     6054     6889 1
   20749     8928     7702 1
   20750     6305     6987 1
   20751    14805    15241 1
   20752    12276    13142 1
   20753     5750     6330 1
   20754    16031    16694 1
   20755     4791     5020 1
   20756     9121    10029 1
   20757     5368     5812 1
   20758    13894    14862 1
   20759    14587    15000 1
   20760     7268     8003 1
   20761    13659    15071 1
   20762     1916     2678 1
   20763     3388     4940 1
   20764     7284     7354 1
   20765     6100     6169 1
   20766     9026     9934 1
   20767      852      670 1
   20768     4829     5182 1
   20769     7192     7201 1
   20770     8909     7793 1
   20771     8726     9164 1
   20772     5726     5872 1
   20773    16605    16820 1
   20774    10727    10905 1
   20775     7368     8545 1
   20776    15669    16814 1
   20777      777     1337 1
   20778    13878    15200 1
   20779    10110    11775 1
   20780    12094    12509 1
   20781    11530    11626 1
   20782     3900      765 1
   20783     4701     5280 1
   20784      801     1174 1
   20785     8706     8834 1
   20786    16394    16858 1
   20787    10546    10572 1
   20788     7669     8130 1
   20789     7233     8617 1
   20790     5109     5126 1
   20791     7583     9622 1
   20792     7709     9345 1
   20793     3281     2122 1
   20794     7685     9828 1
   20795    10532    10848 1
   20796     5711     7060 1
   20797    12479    12789 1
   20798     3625     4015 1
   20799     3507     1888 1
   20800    11084    11511 1
   20801     1211      347 1
   20802     5615     5616 1
   20803     5993    11555 1
   20804      997      670 1
   20805    15806    16506 1
   20806     4339     4810 1
   20807     3204     2558 1
   20808     5455     6141 1
   20809    12365    12388 1
   20810    16369    16450 1
   20811     1607      237 1
   20812    10620    11178 1
   20813    14545    14987 1
   20814    15577    16751 1
   20815    12904    12908 1
   20816     6673     6757 1
   20817     8008     9818 1
   20818    10972    11685 1
   20819     4551     5039 1
   20820     7522     8733 1
   20821    11628    11754 1
   20822     4288     4845 1
   20823    10878    11438 1
   20824     5818     6515 1
   20825    15843    16426 1
   20826    10231    10620 1
   20827       54      505 1
   20828      500     1775 1
   20829     1779      220 1
   20830     4735     5186 1
   20831     8338     9324 1
   20832     4398     4508 1
   20833     6121     6388 1
   20834    10356    11627 1
   20835     5611     6420 1
   20836     6027     6348 1
   20837     5720     6079 1
   20838    14521    14870 1
   20839    15115    15144 1
   20840     4154     2625 1
   20841     2173     2307 1
   20842     7246     8267 1
   20843    12680    13267 1
   20844    12004    12349 1
   20845     7597     8492 1
   20846     5096     5160 1
   20847     4574     4940 1
   20848     5811     6466 1
   20849     5931     6450 1
   20850     1311      166 1
   20851     7703     9141 1
   20852     3236     2134 1
   20853     2095     2557 1
   20854    13842    14512 1
   20855    16037    16929 1
   20856    15455    15733 1
   20857     7957     9384 1
   20858     3947     4153 1
   20859     8776     8809 1
   20860    10247    10565 1
   20861    12579    12954 1
   20862      479      162 1
   20863    11093    11140 1
   20864     8276     8661 1
   20865     6811     6837 1
   20866     3805     4626 1
   20867    16176    16503 1
   20868     2792     2014 1
   20869     3949     4629 1
   20870    10196    16123 1
   20871    14619    15159 1
   20872     4770     5095 1
   20873    16064    17025 1
   20874    13796    15246 1
   20875     1158      645 1
   20876     7213     9431 1
   20877     5571     6031 1
   20878     2960     1850 1
   20879      765     5301 1
   20880    14793    15312 1
   20881     5724     6429 1
   20882     3495     2536 1
   20883     3994     4647 1
   20884    15987    16540 1
   20885    15482    17159 1
   20886     4496     5328 1
   20887      663      271 1
   20888     7544     7936 1
   20889     8308     9640 1
   20890    12715    12800 1
   20891     8037     9499 1
   20892     3861     5111 1
   20893    10224    11735 1
   20894    10303    11249 1
   20895    11192    11769 1
   20896     7533     8641 1
   20897    15544    17012 1
   20898    10429    11317 1
   20899    12526    12991 1
   20900     2920     3345 1
   20901    15762    16445 1
   20902     7226    10050 1
   20903    12985    13261 1
   20904    11925    13247 1
   20905    16316    16666 1
   20906    10394    11427 1
   20907     8486    11797 1
   20908     3776     4207 1
   20909     5803     6518 1
   20910     8439     8803 1
   20911    10342    11622 1
   20912    13098    13113 1
   20913     1240      544 1
   20914    14405    15026 1
   20915     6106     6499 1
   20916     2787     2171 1
   20917     2820     2398 1
   20918      691     1482 1
   20919     8111     8623 1
   20920     1269      455 1
   20921    13885    14770 1
   20922    15618    16174 1
   20923     6711     6944 1
   20924     8196     8595 1
   20925     3657     3803 1
   20926    13684    14087 1
   20927    15888    16317 1
   20928     3669     4743 1
   20929    12016    13243 1
   20930    14188    15021 1
   20931     3430     2113 1
   20932    15043    15201 1
   20933     3086     2219 1
   20934    10329    11261 1
   20935    15537    16440 1
   20936     9438     9818 1
   20937    12609    15755 1
   20938      335      260 1
   20939    12387    12726 1
   20940    16264    17076 1
   20941      937     1362 1
   20942    16368    16729 1
   20943      664     1674 1
   20944     3591     4772 1
   20945    10077    10558 1
   20946    10289    11008 1
   20947     5842     6710 1
   20948     8957     8132 1
   20949    12262    13151 1
   20950     8422     9530 1
   20951    15993    16691 1
   20952    14013    14852 1
   20953     4472     5247 1
   20954     5630     5974 1
   20955     2301     2126 1
   20956     1108      569 1
   20957     7867     7967 1
   20958     1152      139 1
   20959     4184     4935 1
   20960    14117    14729 1
   20961     1966     2680 1
   20962    14464    15194 1
   20963     6249     6771 1
   20964    16256    16955 1
   20965     1281      437 1
   20966     2784     2061 1
   20967     7974     9277 1
   20968    14774    15196 1
   20969     2249     2682 1
   20970      905     1134 1
   20971    12133    13334 1
   20972     2386    13666 1
   20973    10815    10912 1
   20974    13775    14516 1
   20975     3562     2380 1
   20976    12832    12948 1
   20977    16333    16882 1
   20978     8306     8460 1
   20979     5918     6431 1
   20980    11893    13127 1
   20981     7291     9404 1
   20982     7492     8547 1
   20983     5485     6992 1
   20984    13708    14140 1
   20985     9074     9166 1
   20986    14204    14523 1
   20987     7775     9710 1
   20988    12927    13502 1
   20989    11894    12722 1
   20990     6123     6806 1
   20991    11005    11275 1
   20992     4042     4896 1
   20993      563      653 1
   20994     1003      277 1
   20995     3619     3645 1
   20996    16038    16680 1
   20997     5366     5651 1
   20998      847      412 1
   20999     7491     9346 1
   21000    11346    11550 1
   21001    15520    15746 1
   21002     3642     4019 1
   21003    10536    11528 1
   21004     3016     2361 1
   21005    15068    15174 1
   21006     5708     6333 1
   21007    14595    14760 1
   21008     1144     1375 1
   21009     6706     6933 1
   21010     7743     8506 1
   21011    16125    16541 1
   21012    16171    16753 1
   21013    16093    16917 1
   21014    10521    11779 1
   21015    15638    16565 1
   21016     3730     3738 1
   21017    15592    16559 1
   21018     5658     6714 1
   21019     7734     8502 1
   21020     7365     7868 1
   21021     4040     5318 1
   21022    12659    12846 1
   21023     6976     8265 1
   21024     1234     1408 1
   21025    13973    14559 1
   21026     7940     9095 1
   21027     6145     6562 1
   21028     3030     1799 1
   21029     6371     6779 1
   21030     7305     8711 1
   21031     6093     6117 1
   21032     4696     4529 1
   21033     2308     2379 1
   21034    14308    14851 1
   21035     2897     2737 1
   21036     7933     8159 1
   21037     5459     6543 1
   21038    15514    15798 1
   21039    12934    15888 1
   21040    14491    15252 1
   21041    10375    10706 1
   21042     7341     8077 1
   21043     4235     4495 1
   21044    15815    16915 1
   21045     5715     6565 1
   21046    15669    16375 1
   21047     7426     7764 1
   21048    10392    11793 1
   21049     5916    12534 1
   21050     5784     6703 1
   21051     3201     2492 1
   21052     3669     5098 1
   21053     2851     2157 1
   21054     3210     3357 1
   21055    12636    13302 1
   21056     7900     9281 1
   21057     3702     4685 1
   21058     2855     2521 1
   21059    13709    14566 1
   21060     5710     6817 1
   21061     1038      615 1
   21062    10173    11358 1
   21063     6147     6516 1
   21064    14238    15368 1
   21065    15601    15806 1
   21066    16335    16876 1
@<TRIPOS>SUBSTRUCTURE
       1 RES             1 RESIDUE    0 **** ROOT      0
