@<TRIPOS>MOLECULE
RES
2106 2582 1 0 1
SMALL
NO_CHARGES
@<TRIPOS>CRYSIN
   50.0000    50.0000    20.0300    90.0000    90.0000    90.0000  1  1
@<TRIPOS>ATOM
       1 O           39.3280    24.2340     3.1580 O             1 RES     
       2 O            8.4580    48.5390     6.1960 O             1 RES     
       3 O            9.9370    34.3450     9.7080 O             1 RES     
       4 O           27.9310    20.9500     2.9650 O             1 RES     
       5 Si          34.0510    21.9090     6.4800 Si            1 RES     
       6 O           31.4160    17.1410     7.9150 O             1 RES     
       7 O            7.4230    25.4710     6.7820 O             1 RES     
       8 O           47.1120     3.1090     5.5400 O             1 RES     
       9 O           32.8980     7.8050     9.9470 O             1 RES     
      10 Si          38.7810    11.9610     4.5220 Si            1 RES     
      11 O           25.3700     1.5880    12.7280 O             1 RES     
      12 O           28.2200     7.4620    11.4690 O             1 RES     
      13 O           41.5420    22.2820     9.1930 O             1 RES     
      14 O           31.7550     1.9730    13.4760 O             1 RES     
      15 Si           1.2140    26.3900     3.6200 Si            1 RES     
      16 O           32.1660    42.1050     9.0280 O             1 RES     
      17 O           26.2930    46.3710     7.6460 O             1 RES     
      18 O           17.5360    25.3840     7.5700 O             1 RES     
      19 O           45.4190    33.1370    12.1080 O             1 RES     
      20 Si          37.4340     4.1390     8.1680 Si            1 RES     
      21 O           35.4360    32.8570     8.7280 O             1 RES     
      22 O           23.7070    24.5910     4.9950 O             1 RES     
      23 Si           7.6290    42.0460    14.5770 Si            1 RES     
      24 Si          18.9430    40.9130    13.6300 Si            1 RES     
      25 O            9.6650    31.9680     5.7910 O             1 RES     
      26 Si          45.4860    22.8860    10.2000 Si            1 RES     
      27 Si          19.9930    18.2280    12.3350 Si            1 RES     
      28 O           24.5250    30.7410     7.9630 O             1 RES     
      29 O           32.6640    41.9310    11.4990 O             1 RES     
      30 O            6.5590    27.3500     5.0100 O             1 RES     
      31 Si           8.9520    33.0600     4.9870 Si            1 RES     
      32 O           40.1130    25.9410     9.7650 O             1 RES     
      33 O           20.6210    37.5380     6.4480 O             1 RES     
      34 Si          24.6920    29.4830     6.9840 Si            1 RES     
      35 Si          19.3940    15.7420     5.6330 Si            1 RES     
      36 O           29.8760    11.7970     6.2890 O             1 RES     
      37 O           37.9360    30.6050     3.1040 O             1 RES     
      38 O           49.3000    43.1650     4.7740 O             1 RES     
      39 O           49.2410    15.4300     8.7790 O             1 RES     
      40 Si          16.0040    25.6960     7.5250 Si            1 RES     
      41 O           10.2360     3.4110     9.6970 O             1 RES     
      42 O           43.4210    28.2730     6.3950 O             1 RES     
      43 O            0.1870    40.6520     3.9740 O             1 RES     
      44 O           11.9330    36.8760     3.0060 O             1 RES     
      45 Si          43.8870     0.3740     7.3530 Si            1 RES     
      46 O           23.3580    12.3080    11.7210 O             1 RES     
      47 OS          46.3330    21.9160    14.2350 OS            1 RES     
      48 Si          25.3870    41.5760    12.4880 Si            1 RES     
      49 O           46.0860    21.2950     7.0170 O             1 RES     
      50 O           21.7340     6.6160     4.3500 O             1 RES     
      51 O           23.6280    38.4180    11.4120 O             1 RES     
      52 O           48.4240    30.3200     6.4430 O             1 RES     
      53 O           14.8410    23.7240    11.1040 O             1 RES     
      54 O           13.8720     7.7270     8.0010 O             1 RES     
      55 O           42.9320    35.6550     5.0210 O             1 RES     
      56 Si          14.9580    22.2990    11.7660 Si            1 RES     
      57 Si           1.3660    23.9370     5.4410 Si            1 RES     
      58 O           17.8410    37.7820    13.0870 O             1 RES     
      59 O            2.1070    45.4170     9.4240 O             1 RES     
      60 Si          23.7100    28.9220    12.3920 Si            1 RES     
      61 O           38.9530    35.4330    11.0830 O             1 RES     
      62 O           18.9750    37.1960     8.6150 O             1 RES     
      63 O           20.4090    49.8920     4.6600 O             1 RES     
      64 O           45.0010    36.9310    13.7540 O             1 RES     
      65 O           46.3590    38.6730     9.4100 O             1 RES     
      66 Si          30.3630    42.9570     3.6210 Si            1 RES     
      67 Si          47.8950    43.8810     5.0840 Si            1 RES     
      68 O           21.7380    45.4450     8.6830 O             1 RES     
      69 O           29.7260    34.7920    11.3840 O             1 RES     
      70 O           28.0750     5.0820    10.5820 O             1 RES     
      71 O           21.1570    46.3070    14.3630 O             1 RES     
      72 Si          24.9300    47.1050     7.6980 Si            1 RES     
      73 O           49.2420    47.3080     4.1190 O             1 RES     
      74 OS           9.9970    49.0200    15.3030 OS            1 RES     
      75 O           19.3630    42.3460    13.2480 O             1 RES     
      76 O           42.6700    39.8890    13.3630 O             1 RES     
      77 O           30.4550     7.1310    10.0400 O             1 RES     
      78 Si          23.1700     7.2460     4.4180 Si            1 RES     
      79 O           22.6910    40.0080     9.8390 O             1 RES     
      80 O            9.2430    34.4260     5.6130 O             1 RES     
      81 Si          35.9510    45.0840     7.4200 Si            1 RES     
      82 O           13.0020    14.6690    10.0680 O             1 RES     
      83 Si          22.3030    18.2180     3.4300 Si            1 RES     
      84 O           38.6920    44.6600     9.9650 O             1 RES     
      85 Si           5.3750    36.6310     5.4460 Si            1 RES     
      86 O            8.7770    41.0120    14.1070 O             1 RES     
      87 O           31.6610     6.9240     7.6810 O             1 RES     
      88 O            2.1040    44.4950    11.9170 O             1 RES     
      89 O           10.2660     3.2190    12.0870 O             1 RES     
      90 O           33.2710    37.6820     4.3090 O             1 RES     
      91 O            2.5230    37.1640    12.4500 O             1 RES     
      92 O           34.7990    41.8550    10.2240 O             1 RES     
      93 Si          40.6200    48.9560    13.0040 Si            1 RES     
      94 Si          20.4020    45.1770     4.5950 Si            1 RES     
      95 Si          30.0820    17.9670     7.9450 Si            1 RES     
      96 O           30.5780    43.3520     7.2540 O             1 RES     
      97 O           19.3900    32.4830    10.8440 O             1 RES     
      98 O           38.7970    47.0110    10.9690 O             1 RES     
      99 Si          39.4990    19.3740     8.7080 Si            1 RES     
     100 O           42.9490    38.5760     2.4350 O             1 RES     
     101 Si           3.8240    29.5800     7.9930 Si            1 RES     
     102 O           26.1210     8.9700    12.5670 O             1 RES     
     103 O           37.3440     8.4030     7.9400 O             1 RES     
     104 O           15.1020    37.0500     8.0510 O             1 RES     
     105 O            9.6790     3.5510     2.8980 O             1 RES     
     106 O           31.5790    43.9430     3.5960 O             1 RES     
     107 Si          35.8900    12.3490     5.6510 Si            1 RES     
     108 O            4.2640     9.0260     4.7800 O             1 RES     
     109 O           44.0270    15.3980     4.9560 O             1 RES     
     110 O           38.3090    33.0360    11.9640 O             1 RES     
     111 Si          32.8510    29.5180    12.2650 Si            1 RES     
     112 O           22.9350    41.4540     7.9210 O             1 RES     
     113 O           30.0370    49.7050     3.3810 O             1 RES     
     114 Si           3.5000    38.7530     4.4320 Si            1 RES     
     115 O           38.2010    10.6540     7.5920 O             1 RES     
     116 O            9.7210    44.1600     8.4230 O             1 RES     
     117 O           38.4650    25.9060     8.1340 O             1 RES     
     118 O            6.0940    16.2190     8.6880 O             1 RES     
     119 Si          35.5490    30.0700    13.5290 Si            1 RES     
     120 OS          19.4890    24.5230    14.7060 OS            1 RES     
     121 O           41.3560    36.3370    10.0850 O             1 RES     
     122 Si          15.1630    35.7140     7.3010 Si            1 RES     
     123 O            7.6490    16.0520    13.1470 O             1 RES     
     124 O           31.1850     7.8320     5.0870 O             1 RES     
     125 O           24.1550    46.1000     8.5750 O             1 RES     
     126 O            8.2810     6.0230    12.1260 O             1 RES     
     127 Si           5.4560     7.3650    14.2420 Si            1 RES     
     128 O           45.3310    24.4320     9.8760 O             1 RES     
     129 Si          25.6960    37.4590     8.8510 Si            1 RES     
     130 O            2.2070    13.1450    12.8520 O             1 RES     
     131 Si          15.9380    32.7240     8.1010 Si            1 RES     
     132 Si           7.5200    44.1720    12.3700 Si            1 RES     
     133 O           30.4440    23.0700     5.2210 O             1 RES     
     134 O           46.7050    47.7370     5.0130 O             1 RES     
     135 OS          13.2410    47.3600    14.7350 OS            1 RES     
     136 O           11.4490     7.4630     8.7760 O             1 RES     
     137 Si          23.7950     1.6760     6.8390 Si            1 RES     
     138 Si          29.4070    14.1440    12.7720 Si            1 RES     
     139 O            2.8600    30.0720     9.2260 O             1 RES     
     140 OS          39.9800    19.6340    14.9860 OS            1 RES     
     141 Si          21.9800    30.9280     3.3940 Si            1 RES     
     142 O           24.3500    18.9630     7.6670 O             1 RES     
     143 O            8.7010    16.3040     2.2870 O             1 RES     
     144 Si          22.5320    25.0840     4.1390 Si            1 RES     
     145 O            3.2820     9.1310    10.0050 O             1 RES     
     146 Si          18.5560    33.6670    11.4620 Si            1 RES     
     147 O           17.6690    29.6720     7.1160 O             1 RES     
     148 Si          20.2150     6.4960     4.7090 Si            1 RES     
     149 Si          26.0590    40.8180     5.8490 Si            1 RES     
     150 O           28.9650    38.7850    10.2090 O             1 RES     
     151 O           40.1500    16.6990     2.3940 O             1 RES     
     152 Si          49.4280     0.5340     8.6050 Si            1 RES     
     153 OS          30.9120     5.7890    15.4930 OS            1 RES     
     154 O            4.7720    21.7590     6.4550 O             1 RES     
     155 O           24.2530    33.2980     7.8670 O             1 RES     
     156 O           26.5570    43.0640    13.5040 O             1 RES     
     157 Si          10.7020    30.7490     6.1000 Si            1 RES     
     158 O           42.6700     5.6730     5.2900 O             1 RES     
     159 Si          14.2700    49.9640    11.6860 Si            1 RES     
     160 O            6.6100    21.1300    10.0300 O             1 RES     
     161 O           49.4510    11.8250    10.8060 O             1 RES     
     162 O           41.1260    13.8420     9.8870 O             1 RES     
     163 O           36.5990    20.8150    13.3960 O             1 RES     
     164 OS           5.7020     7.1450    15.7140 OS            1 RES     
     165 O           45.6810    15.0260     7.0230 O             1 RES     
     166 O           46.7460    26.3010     8.8480 O             1 RES     
     167 O           27.8520    30.1570     5.1630 O             1 RES     
     168 O           14.0080    16.7380     5.3380 O             1 RES     
     169 Si          13.3490    24.6240     3.2190 Si            1 RES     
     170 O           25.9020    34.8710     4.4290 O             1 RES     
     171 O           20.1230     4.8830     4.5910 O             1 RES     
     172 O           34.1470    15.1210    11.3000 O             1 RES     
     173 Si           1.3730    22.1510     2.9220 Si            1 RES     
     174 O           21.3860     9.3540    14.2790 O             1 RES     
     175 O           49.7900    25.9860     3.1710 O             1 RES     
     176 O           32.2150    27.3290     8.7490 O             1 RES     
     177 O           42.4190    13.5680     5.7240 O             1 RES     
     178 O           37.2140     5.2770     9.2580 O             1 RES     
     179 O           40.9980    23.4960     1.5910 O             1 RES     
     180 O            0.6460    27.9250    13.3760 O             1 RES     
     181 Si           0.8110    19.1590     9.6580 Si            1 RES     
     182 O           30.5330    18.1760     4.0030 O             1 RES     
     183 O           41.9850    33.4010     8.8860 O             1 RES     
     184 O            6.9590    38.8170    12.1150 O             1 RES     
     185 O           23.5630    28.8290     6.0310 O             1 RES     
     186 Si          36.8960     6.1620    10.4730 Si            1 RES     
     187 O           30.9060    42.8970    12.8760 O             1 RES     
     188 Si          36.6590    19.1670    13.0730 Si            1 RES     
     189 O           22.3450    33.7720    10.4280 O             1 RES     
     190 Si          38.7720    49.4470     3.8340 Si            1 RES     
     191 Si          20.6320    28.6790    11.6590 Si            1 RES     
     192 O           29.1060     9.9070     8.0490 O             1 RES     
     193 O            4.3300    16.1090     6.8260 O             1 RES     
     194 Si          46.1970     8.4660     8.6420 Si            1 RES     
     195 O           31.4770    20.9200    10.3250 O             1 RES     
     196 O           23.6740    13.7090     7.1970 O             1 RES     
     197 O           25.7850    16.0530    11.2930 O             1 RES     
     198 Si          25.0720     2.0650    11.2810 Si            1 RES     
     199 O            6.5130    12.3630    10.0980 O             1 RES     
     200 O            9.7480    22.3050    14.0480 O             1 RES     
     201 O           31.2430    26.1310     6.4910 O             1 RES     
     202 O           29.5560    43.4330     4.9100 O             1 RES     
     203 O            5.5290    29.6980     4.5780 O             1 RES     
     204 O           41.2690     0.2290    13.6010 O             1 RES     
     205 Si          12.1290    29.9390     9.9840 Si            1 RES     
     206 OS          37.6540    22.6800    14.4990 OS            1 RES     
     207 O           19.3970     5.5340    14.5810 O             1 RES     
     208 Si          42.9810    42.5610    10.5600 Si            1 RES     
     209 O            0.0220    14.5270     4.1100 O             1 RES     
     210 O           27.5270     6.1070     3.8020 O             1 RES     
     211 O           12.7250     3.7090    12.4850 O             1 RES     
     212 Si           9.4180     2.8310    10.8570 Si            1 RES     
     213 O           31.6600    36.1520    10.5500 O             1 RES     
     214 Si          18.5290    31.0570     7.4200 Si            1 RES     
     215 O           22.9530    45.1110    10.9490 O             1 RES     
     216 O           47.5310    28.1790     7.5710 O             1 RES     
     217 Si          32.4110    11.4260    14.4260 Si            1 RES     
     218 O           22.0970     2.9560     3.5790 O             1 RES     
     219 O           23.9750    47.1680     6.4300 O             1 RES     
     220 Si          35.6350     7.7970     5.0950 Si            1 RES     
     221 OS          28.6390    36.2550    14.3820 OS            1 RES     
     222 Si          15.2560    25.1420    10.4270 Si            1 RES     
     223 O           18.6580    35.0890    10.6360 O             1 RES     
     224 O           20.2660    37.5690    13.8000 O             1 RES     
     225 O           29.7200    18.0810    12.3670 O             1 RES     
     226 O           26.0000    19.8770     4.2940 O             1 RES     
     227 O           41.0400     2.2550     8.1180 O             1 RES     
     228 Si          26.5050     9.2230     5.5330 Si            1 RES     
     229 O           36.9120    40.4130    10.7990 O             1 RES     
     230 O           20.7340    15.2520     4.9050 O             1 RES     
     231 O           19.4960    18.3400    10.8120 O             1 RES     
     232 O           22.9330     2.9620     7.0930 O             1 RES     
     233 O           46.3160    48.9330    13.3120 O             1 RES     
     234 O           25.5590    23.5770     6.4960 O             1 RES     
     235 O           34.9440    48.6380    11.0810 O             1 RES     
     236 Si          25.5740    19.7440    11.9030 Si            1 RES     
     237 O           48.8640    43.1430    13.3700 O             1 RES     
     238 Si          39.8650    13.0490    13.4740 Si            1 RES     
     239 O            0.6750    30.5180    10.5840 O             1 RES     
     240 OS          19.3050    40.6320    15.2050 OS            1 RES     
     241 Si          19.9420     6.1710     7.7720 Si            1 RES     
     242 Si          23.1990    12.0790     3.8050 Si            1 RES     
     243 O           30.8380     5.4450     5.9680 O             1 RES     
     244 O           45.9100     7.5290     7.3860 O             1 RES     
     245 Si           3.6840    12.8230    12.3480 Si            1 RES     
     246 O           18.8100    44.6700    12.2700 O             1 RES     
     247 Si          38.0060    11.3040     9.0220 Si            1 RES     
     248 O           20.9740    36.1480     4.3800 O             1 RES     
     249 Si          21.0440     5.2630    14.6930 Si            1 RES     
     250 O           33.5230    45.4890     2.9160 O             1 RES     
     251 O           28.3750     6.0870    14.6900 O             1 RES     
     252 O           23.1790    31.3580     2.5010 O             1 RES     
     253 Si           9.2410    45.5480     3.3790 Si            1 RES     
     254 Si          34.3650     5.5360    12.3320 Si            1 RES     
     255 Si          39.6160    25.8090     3.1450 Si            1 RES     
     256 O           28.8550    16.9830     8.2740 O             1 RES     
     257 Si          10.8730    25.4460     9.4090 Si            1 RES     
     258 O            2.9380    27.3670    13.5110 O             1 RES     
     259 O           33.3940    45.2420    13.7960 O             1 RES     
     260 Si          45.8650    31.8970     2.7980 Si            1 RES     
     261 O           43.3990     5.4610    10.9030 O             1 RES     
     262 Si          48.1860     9.2440    12.9390 Si            1 RES     
     263 O           45.3100    32.5620     6.9560 O             1 RES     
     264 O           21.8170    45.9040     5.1190 O             1 RES     
     265 O           42.0710    47.7170     9.4400 O             1 RES     
     266 Si          35.4420    32.0520     7.3890 Si            1 RES     
     267 O           45.1310    14.1860     9.3770 O             1 RES     
     268 O           13.7230     1.3210    12.2550 O             1 RES     
     269 O           28.4180    12.2310     8.3410 O             1 RES     
     270 O           48.1150     3.6560     3.2300 O             1 RES     
     271 O           24.3630    21.2010     2.9820 O             1 RES     
     272 Si           0.4750    39.2730     4.6870 Si            1 RES     
     273 Si          49.8290    17.2240    12.6160 Si            1 RES     
     274 O           11.8830    42.9360     5.5030 O             1 RES     
     275 O           48.1000    18.5900     5.2710 O             1 RES     
     276 OS          36.9350    13.5800    15.2140 OS            1 RES     
     277 Si          13.5760    45.1310     8.3190 Si            1 RES     
     278 O            7.9420    29.6150     8.5510 O             1 RES     
     279 O           19.4490    16.2870     9.2650 O             1 RES     
     280 Si          21.5420    36.5720    14.1650 Si            1 RES     
     281 O           20.8560    44.1370    13.7370 O             1 RES     
     282 O           21.8720    33.0660     6.7000 O             1 RES     
     283 Si          28.1680    32.5160     7.8900 Si            1 RES     
     284 O            9.3260    14.7530     6.8240 O             1 RES     
     285 Si          33.4080    23.7200     8.8770 Si            1 RES     
     286 O           22.0920    20.6210     7.5910 O             1 RES     
     287 O            3.4620     6.4040    10.5250 O             1 RES     
     288 Si          37.3120    24.5400    11.4470 Si            1 RES     
     289 O           26.2140    25.8960    11.8030 O             1 RES     
     290 Si          39.0690    17.2800     3.3630 Si            1 RES     
     291 O           38.6180    34.2620     4.5350 O             1 RES     
     292 Si          37.6040    34.2130     3.3530 Si            1 RES     
     293 O           17.1970    29.7180    13.4790 O             1 RES     
     294 O            0.7970    42.5890     7.7990 O             1 RES     
     295 O           22.2110    13.2820     3.8790 O             1 RES     
     296 OS          40.1380    25.9320    14.3240 OS            1 RES     
     297 O            3.3010    42.0190     7.2270 O             1 RES     
     298 O           42.6960    40.5310     3.8590 O             1 RES     
     299 Si          17.0000     5.1450     8.0970 Si            1 RES     
     300 O           47.1890    25.8760     6.4000 O             1 RES     
     301 O           42.6210    18.3830    10.7470 O             1 RES     
     302 O            8.0760    15.1190     4.6190 O             1 RES     
     303 Si          45.0950    38.4250    10.3500 Si            1 RES     
     304 O           45.8150     0.0320     1.4580 O             1 RES     
     305 Si          12.9980    31.8610     7.7030 Si            1 RES     
     306 O           18.4430    18.7220     8.4660 O             1 RES     
     307 O           24.4370    16.7460     6.5860 O             1 RES     
     308 OS          49.4460    48.7190    14.6740 OS            1 RES     
     309 Si          14.9540    12.9100     6.0530 Si            1 RES     
     310 O           14.9650    18.7910     9.9840 O             1 RES     
     311 O           37.9870    44.9430    12.3720 O             1 RES     
     312 Si          20.9490    47.8360    14.6340 Si            1 RES     
     313 Si          24.7280    26.1950    11.4530 Si            1 RES     
     314 O           47.3630    32.9210     8.3330 O             1 RES     
     315 O           43.0670     2.0600    14.2180 O             1 RES     
     316 O           32.0960    16.7640    11.4900 O             1 RES     
     317 O           34.8860    47.1780    12.9650 O             1 RES     
     318 O           12.7500    15.3170     3.5650 O             1 RES     
     319 O           35.1600    41.7720     5.1760 O             1 RES     
     320 O           46.3020    43.3040     9.1230 O             1 RES     
     321 O           21.4630    14.5980     8.6160 O             1 RES     
     322 O           38.8250    47.9060     3.5560 O             1 RES     
     323 OS          31.5970    22.2610    15.3020 OS            1 RES     
     324 O           33.4650     1.9990     3.7860 O             1 RES     
     325 O           27.3030    14.6550     8.4230 O             1 RES     
     326 Si          47.7840    30.4230    13.0160 Si            1 RES     
     327 Si          28.0700    37.3300    13.3640 Si            1 RES     
     328 O           24.3010    27.5890    11.8080 O             1 RES     
     329 O           29.2100    28.5980    14.2210 O             1 RES     
     330 O           18.4060    47.3430    11.6440 O             1 RES     
     331 O            6.4100    19.6400     5.3440 O             1 RES     
     332 O           19.7470    28.5850    12.9640 O             1 RES     
     333 O            9.7490    47.1610    13.2240 O             1 RES     
     334 Si          48.5780    19.7920     6.0330 Si            1 RES     
     335 Si          13.2120     6.2720     4.4060 Si            1 RES     
     336 Si          38.8670    43.7710     3.9090 Si            1 RES     
     337 O           16.1730    35.9180     6.1790 O             1 RES     
     338 Si          46.9800     2.9410     3.9820 Si            1 RES     
     339 O           16.4210    48.9450     5.2640 O             1 RES     
     340 OS          26.6940    44.9590    15.1340 OS            1 RES     
     341 O           49.7980    38.4060    12.4830 O             1 RES     
     342 Si          45.7850    33.9520    13.4140 Si            1 RES     
     343 Si          28.4320     0.9860     9.0180 Si            1 RES     
     344 OS          13.7120    44.0760    14.1260 OS            1 RES     
     345 OS          18.4220    28.3930    15.1580 OS            1 RES     
     346 O            3.7910    19.2340    12.2220 O             1 RES     
     347 Si          37.3810    14.3720     9.2660 Si            1 RES     
     348 O           39.6090    17.1140     4.7570 O             1 RES     
     349 O           18.9850    23.2030     4.9360 O             1 RES     
     350 O           33.3830    29.5890     8.6530 O             1 RES     
     351 Si           6.5040    34.3540     3.6440 Si            1 RES     
     352 OS          27.0950    38.4120    14.2150 OS            1 RES     
     353 O           10.6390    41.7210    12.3230 O             1 RES     
     354 Si          21.8010    23.4750    10.1490 Si            1 RES     
     355 O           32.1880     2.9370    11.0530 O             1 RES     
     356 O           48.2850    37.1040     8.2830 O             1 RES     
     357 O           41.0400     2.3510    12.7430 O             1 RES     
     358 Si          23.6110    42.4730     6.8000 Si            1 RES     
     359 Si          39.1900    24.7630     8.9630 Si            1 RES     
     360 O           23.5860    47.4960    12.0860 O             1 RES     
     361 O           35.6550    44.6830    12.9390 O             1 RES     
     362 O           38.8090    10.5150     5.0240 O             1 RES     
     363 Si          24.0620    35.1490    14.2360 Si            1 RES     
     364 Si           7.5450    17.4300    12.2700 Si            1 RES     
     365 O           11.9280    10.0130     4.3980 O             1 RES     
     366 OS          29.4870    24.8820    15.0800 OS            1 RES     
     367 O           47.4460    12.9720    12.0550 O             1 RES     
     368 O           16.4350     1.3450     6.4240 O             1 RES     
     369 OS          15.1070    41.8100    14.3490 OS            1 RES     
     370 Si          10.3130    11.8920    10.4020 Si            1 RES     
     371 O           11.2070    32.3640    13.4470 O             1 RES     
     372 O           23.7810    46.8420     3.9060 O             1 RES     
     373 O           32.3080    40.5490    13.5250 O             1 RES     
     374 Si          14.6130    39.8490    10.8620 Si            1 RES     
     375 O           23.8970    25.3580    12.4800 O             1 RES     
     376 Si           9.0190     4.2510     4.0900 Si            1 RES     
     377 O           25.1120    14.6520     5.4390 O             1 RES     
     378 Si          44.0140    36.7140     7.7550 Si            1 RES     
     379 O           48.1550    10.7840    12.7930 O             1 RES     
     380 O           14.5800    10.1050    13.9600 O             1 RES     
     381 O           30.2540    15.4520    12.2440 O             1 RES     
     382 O           15.1430    39.4530     9.4470 O             1 RES     
     383 Si          26.1430     3.1790     5.5820 Si            1 RES     
     384 O            0.4530     3.1480     6.2690 O             1 RES     
     385 O           46.8350    49.3910    10.9860 O             1 RES     
     386 O            4.0590    36.5990     8.4880 O             1 RES     
     387 Si          21.9700    14.8470     4.0010 Si            1 RES     
     388 Si           5.4830    21.8870    10.9520 Si            1 RES     
     389 O           12.9610    16.0130    12.0790 O             1 RES     
     390 Si          18.5110    45.7810    11.1700 Si            1 RES     
     391 O           26.1120     6.5300    13.1560 O             1 RES     
     392 O           28.9550    11.6580     3.8450 O             1 RES     
     393 O           16.8570     4.4800     9.5660 O             1 RES     
     394 O           12.2070    31.3180     6.4880 O             1 RES     
     395 Si           3.6610    47.9890     3.2660 Si            1 RES     
     396 O            2.3810    38.3960     9.2630 O             1 RES     
     397 OS           2.3710    15.6750    15.1730 OS            1 RES     
     398 O           16.4770    43.0330     5.4360 O             1 RES     
     399 OS          18.8940    14.6420    14.0900 OS            1 RES     
     400 O            8.4010    37.8400     9.9930 O             1 RES     
     401 Si          35.2360    26.0960     9.8200 Si            1 RES     
     402 O           41.6370    48.2940    12.0470 O             1 RES     
     403 O           28.3920    45.5220     9.3080 O             1 RES     
     404 Si           8.7650     9.9060     8.6400 Si            1 RES     
     405 Si          31.1860    40.2060     4.6190 Si            1 RES     
     406 O           33.9620     9.7730    11.3540 O             1 RES     
     407 Si          29.9290    38.9810    11.4220 Si            1 RES     
     408 O           31.0820    45.2290    13.9070 O             1 RES     
     409 O           12.6410    40.5630    10.4970 O             1 RES     
     410 O           46.4470    45.4640     8.5700 O             1 RES     
     411 O            3.8460    49.6770    12.4230 O             1 RES     
     412 O           11.9350    26.3070    10.1220 O             1 RES     
     413 OS           1.5340    34.4590    14.7830 OS            1 RES     
     414 O           34.7310    37.0780     7.2970 O             1 RES     
     415 O            9.9940    32.7270     3.7510 O             1 RES     
     416 O           45.7050    12.9940    13.9360 O             1 RES     
     417 Si          18.4620    19.7870     7.3990 Si            1 RES     
     418 O           11.2240    35.5340     6.4810 O             1 RES     
     419 O           43.9110    10.6470     6.2750 O             1 RES     
     420 O           45.5200    36.9650     7.4450 O             1 RES     
     421 O           42.3600    47.1630     6.9220 O             1 RES     
     422 O           21.7830    13.9840    12.3470 O             1 RES     
     423 Si           4.6720    42.4670    14.7490 Si            1 RES     
     424 O           44.6130    34.5780    14.3020 O             1 RES     
     425 Si          14.1290    22.9800    14.7380 Si            1 RES     
     426 Si          38.2540    43.6100     8.9210 Si            1 RES     
     427 O           17.5590    27.3140    12.9220 O             1 RES     
     428 O            3.3950    11.3600    11.7150 O             1 RES     
     429 Si           6.1610     4.5190     2.9570 Si            1 RES     
     430 Si          35.9990     4.7990     5.4630 Si            1 RES     
     431 OS          31.9370    24.6540    15.5530 OS            1 RES     
     432 O           40.4460     8.8940    11.2490 O             1 RES     
     433 Si          36.3780     8.7640     9.1110 Si            1 RES     
     434 Si           1.8180    27.6390    12.3530 Si            1 RES     
     435 O           47.8010    37.1470    12.8070 O             1 RES     
     436 OS           6.0320    28.5880    14.6560 OS            1 RES     
     437 O           11.1920    45.1340    13.1630 O             1 RES     
     438 O           48.1120    47.4380    10.4120 O             1 RES     
     439 O           39.5130    20.8610     8.2070 O             1 RES     
     440 O            7.0610     3.7190    13.2660 O             1 RES     
     441 O           26.4280    34.1630    11.4740 O             1 RES     
     442 Si          33.3770     3.5300     3.4640 Si            1 RES     
     443 O           16.2090    28.5900     2.5190 O             1 RES     
     444 Si          47.5000    16.6790    14.5240 Si            1 RES     
     445 O           36.1180    48.2970     8.6890 O             1 RES     
     446 O           46.7490    17.9500     3.0500 O             1 RES     
     447 O           41.6860    42.9810     6.6740 O             1 RES     
     448 O           37.4760    12.5040     5.3120 O             1 RES     
     449 Si          24.7900    13.2300     6.2040 Si            1 RES     
     450 O           38.1530     4.6200    13.3710 O             1 RES     
     451 O            9.6770    32.6350    11.3050 O             1 RES     
     452 Si          33.9690    22.8690     3.4780 Si            1 RES     
     453 O           43.9820    37.9620     9.3120 O             1 RES     
     454 Si          39.8800    10.0190    14.4640 Si            1 RES     
     455 Si          12.2740    34.9140     7.4100 Si            1 RES     
     456 OS          48.1120    31.3340    14.2630 OS            1 RES     
     457 O           25.0010    18.4920    11.1670 O             1 RES     
     458 O            2.7600    24.2130    10.4020 O             1 RES     
     459 O           42.9580    26.1660    11.8200 O             1 RES     
     460 O           45.1440    14.4450    11.7480 O             1 RES     
     461 Si          40.0110    39.8830     8.6920 Si            1 RES     
     462 O           30.9400    26.7240    14.3070 O             1 RES     
     463 O            4.8870    30.6080    12.7110 O             1 RES     
     464 Si          29.8400     5.9120    14.2460 Si            1 RES     
     465 O           36.7400    29.8300     5.2550 O             1 RES     
     466 Si          29.9620     2.8120    14.3510 Si            1 RES     
     467 Si          16.6150    44.7830     8.8650 Si            1 RES     
     468 O           14.1100    11.8590     9.6930 O             1 RES     
     469 O            2.0850    44.1560     6.4310 O             1 RES     
     470 O           39.2760    49.2800    12.1610 O             1 RES     
     471 Si          39.0470    45.4520    11.2560 Si            1 RES     
     472 Si          46.1120    42.6170    10.5030 Si            1 RES     
     473 Si          15.9470     2.3680     7.5480 Si            1 RES     
     474 Si          12.7670    44.5550    12.9780 Si            1 RES     
     475 O            9.2800    23.5000     7.5290 O             1 RES     
     476 O           40.7000    34.4120    12.2590 O             1 RES     
     477 O           37.3970    49.2820    10.3440 O             1 RES     
     478 O           27.2990     9.9210     4.3170 O             1 RES     
     479 OS          38.9710    38.8380    14.4190 OS            1 RES     
     480 O           47.5000    17.2100     9.6140 O             1 RES     
     481 O           10.7770    40.0520     8.7900 O             1 RES     
     482 OS          21.3040     5.7590    16.2490 OS            1 RES     
     483 O           17.1220    19.9280    13.5530 O             1 RES     
     484 Si          24.9320    24.8970     5.9010 Si            1 RES     
     485 Si          46.2280    36.8130    12.7060 Si            1 RES     
     486 O           17.5710     7.1020    13.6460 O             1 RES     
     487 OS           4.0240    35.2560    14.7380 OS            1 RES     
     488 O            3.9580    31.7320     3.9260 O             1 RES     
     489 O           30.0340    48.1820     5.4990 O             1 RES     
     490 Si          13.4320    27.8980    13.9180 Si            1 RES     
     491 Si           2.3960     0.3410    12.1610 Si            1 RES     
     492 Si           1.3740    24.8670    10.7920 Si            1 RES     
     493 O           32.8560    14.0160     5.4360 O             1 RES     
     494 Si          10.6450    14.5730    14.5960 Si            1 RES     
     495 O            5.0360    32.8140    11.2680 O             1 RES     
     496 O            4.3950     1.0660     5.6080 O             1 RES     
     497 Si          11.4700    14.6680     9.6650 Si            1 RES     
     498 O           45.4260    12.4360     7.7160 O             1 RES     
     499 Si          39.5160    33.9090    11.3150 Si            1 RES     
     500 O           42.7260    45.9040    11.9400 O             1 RES     
     501 O           21.7830     5.7500    13.3060 O             1 RES     
     502 O            3.4140    40.7410     9.3500 O             1 RES     
     503 O           34.3490    32.3610     3.7950 O             1 RES     
     504 O            4.0670    45.7170    13.0380 O             1 RES     
     505 O           16.5320    25.6030    11.2150 O             1 RES     
     506 O            8.3430    40.2150     9.8420 O             1 RES     
     507 O            4.0360    25.3720     8.7120 O             1 RES     
     508 O           30.6800    45.8030     9.3590 O             1 RES     
     509 O           10.0900    10.7120     6.1550 O             1 RES     
     510 O           19.1940    17.1920     5.2050 O             1 RES     
     511 O           37.1160    48.2080    12.3700 O             1 RES     
     512 OS          21.3010    24.0450    16.2710 OS            1 RES     
     513 Si          11.3670    16.3290    12.1810 Si            1 RES     
     514 O           21.0180    22.6280    14.1260 O             1 RES     
     515 O           35.5170    49.9290     1.5800 O             1 RES     
     516 O            3.1960    13.4610     3.7560 O             1 RES     
     517 O            4.0060    30.3250     6.5690 O             1 RES     
     518 Si          39.5480    34.3190     5.9030 Si            1 RES     
     519 Si          19.5940    18.6870     4.7920 Si            1 RES     
     520 O           15.5400    11.8900    12.5810 O             1 RES     
     521 OS          37.5660    43.9420    14.5470 OS            1 RES     
     522 Si           3.2760    22.0430     6.8940 Si            1 RES     
     523 Si          16.4430     3.1290    10.4140 Si            1 RES     
     524 O           34.7450    20.4650     6.8190 O             1 RES     
     525 O           42.7410    49.4860     7.9210 O             1 RES     
     526 O            9.6600    25.8890     8.2980 O             1 RES     
     527 Si          14.1900    40.4600     5.9330 Si            1 RES     
     528 O            2.1890     7.9920     5.7940 O             1 RES     
     529 O           16.4940    21.9160    12.0070 O             1 RES     
     530 O            8.7360    23.7110    12.1360 O             1 RES     
     531 O           13.5230    21.9240    15.8210 O             1 RES     
     532 O            9.6740     3.0890     7.3500 O             1 RES     
     533 Si          45.4850     2.3080     9.1260 Si            1 RES     
     534 O           34.5530     1.7420     7.1130 O             1 RES     
     535 Si          47.6950    46.8240     4.1620 Si            1 RES     
     536 O           42.5580    35.6650    13.9000 O             1 RES     
     537 O            9.0940    31.8780     9.0570 O             1 RES     
     538 O           32.8540    11.6640    10.2560 O             1 RES     
     539 O           39.9370    12.6720     5.1830 O             1 RES     
     540 O           42.7870     7.5880     3.9020 O             1 RES     
     541 O           41.5110    44.6970    13.8950 O             1 RES     
     542 O           27.3630    49.9370    13.8480 O             1 RES     
     543 Si           3.5110    26.4870     7.6910 Si            1 RES     
     544 O           24.8100    40.6180     2.1530 O             1 RES     
     545 Si          33.1190    31.9260    14.0560 Si            1 RES     
     546 OS          28.0830    19.4000    14.1250 OS            1 RES     
     547 Si          45.3360    48.4560     5.2530 Si            1 RES     
     548 O           15.0890    16.2570    10.7830 O             1 RES     
     549 O            1.7470    25.2300     4.6450 O             1 RES     
     550 O           20.2430    49.6870    11.9420 O             1 RES     
     551 Si           1.9550    42.6290     6.7790 Si            1 RES     
     552 Si          21.5380     3.5220     7.4470 Si            1 RES     
     553 O           17.2980    45.0130    10.2930 O             1 RES     
     554 O           14.1450    39.2150     6.8920 O             1 RES     
     555 O           10.4990    19.3050     7.6740 O             1 RES     
     556 Si          14.9070     7.2060     6.9330 Si            1 RES     
     557 OS          35.9940    28.8700    14.4490 OS            1 RES     
     558 Si          28.6810    25.7310     9.3460 Si            1 RES     
     559 O           35.3300    30.3750     2.9760 O             1 RES     
     560 Si           8.6830    43.2050     7.6990 Si            1 RES     
     561 O           14.0870    29.7210     3.3030 O             1 RES     
     562 O           19.1870    21.2940    12.9720 O             1 RES     
     563 O           33.0820    22.8120    10.2330 O             1 RES     
     564 Si           9.8810    40.5260    12.9850 Si            1 RES     
     565 O           47.5190    36.2220     3.8790 O             1 RES     
     566 Si          28.5250     6.5820    10.1990 Si            1 RES     
     567 O           10.7470    36.0950    11.4710 O             1 RES     
     568 Si          47.4500    17.4220     4.3660 Si            1 RES     
     569 O           28.1610    15.8470     6.3670 O             1 RES     
     570 OS           1.1650    22.8170    14.2730 OS            1 RES     
     571 O           20.9420    35.2100    13.7210 O             1 RES     
     572 O           44.8110     0.9100     8.5730 O             1 RES     
     573 Si          44.9640     1.5540    14.1870 Si            1 RES     
     574 O           18.5750    27.3960     6.6910 O             1 RES     
     575 O           26.1090     3.3020     3.9990 O             1 RES     
     576 Si          42.6060    34.7230     9.4340 Si            1 RES     
     577 Si          45.3720    10.9610     7.0310 Si            1 RES     
     578 O           22.5860    29.5690     3.9380 O             1 RES     
     579 Si          22.7510    32.3970    13.7560 Si            1 RES     
     580 O           46.9910     8.4630    12.3190 O             1 RES     
     581 Si          40.2970    31.3540     6.4800 Si            1 RES     
     582 Si           6.0960    33.9830    10.8440 Si            1 RES     
     583 O           12.7440    30.9830     8.8940 O             1 RES     
     584 O           46.1210     1.2430    12.8700 O             1 RES     
     585 O           26.2930    30.5420     3.2220 O             1 RES     
     586 OS          24.6990    25.6840    14.8190 OS            1 RES     
     587 O            7.8820    24.5560     9.3200 O             1 RES     
     588 O           27.0360    22.2950     8.3600 O             1 RES     
     589 O           25.2950     0.7040    10.3780 O             1 RES     
     590 Si          24.9280    17.5040     7.8380 Si            1 RES     
     591 O           48.6180     4.1440    10.7340 O             1 RES     
     592 O           25.6520    28.5460     7.8160 O             1 RES     
     593 O           19.8470    24.9840     6.4890 O             1 RES     
     594 Si          41.6370    12.8030    10.9200 Si            1 RES     
     595 Si          35.3520     1.3890    12.1150 Si            1 RES     
     596 Si          46.8970    37.7350     7.7620 Si            1 RES     
     597 O           26.2440     7.4510     2.2640 O             1 RES     
     598 O            5.3780    35.8640     6.8210 O             1 RES     
     599 Si          29.6910    10.9870    13.0470 Si            1 RES     
     600 O           45.1740    27.8150     2.8680 O             1 RES     
     601 Si          43.8770    27.3760    11.5510 Si            1 RES     
     602 Si          11.7030    38.3260    14.0660 Si            1 RES     
     603 Si          12.5270     8.5340     8.2720 Si            1 RES     
     604 O            3.5620    28.0480     7.7900 O             1 RES     
     605 O           46.5290    22.0670     9.2400 O             1 RES     
     606 Si          13.1480    15.3560     5.0550 Si            1 RES     
     607 O           24.9450    29.7810    11.9010 O             1 RES     
     608 O            0.0590    17.7840     9.3110 O             1 RES     
     609 O           19.1170    13.8090     9.2550 O             1 RES     
     610 O            4.0670    37.3420     4.9070 O             1 RES     
     611 O           36.9140    10.2500     9.4460 O             1 RES     
     612 O           35.5640     6.3480     5.5660 O             1 RES     
     613 O           29.1860    38.1350    12.6570 O             1 RES     
     614 Si          31.8730    37.3300     3.6020 Si            1 RES     
     615 O           42.7740     3.8650     8.6890 O             1 RES     
     616 O           49.9610    33.5230     2.2830 O             1 RES     
     617 O           36.2550    26.7060     8.7730 O             1 RES     
     618 Si          14.0130    15.1700    11.1740 Si            1 RES     
     619 O            3.7870    16.7630    12.8830 O             1 RES     
     620 O           25.4310    34.6270    14.8470 O             1 RES     
     621 Si          48.5450     5.0490    12.0960 Si            1 RES     
     622 Si          22.1770    15.5760    12.9460 Si            1 RES     
     623 Si          49.6620    41.8330    13.8930 Si            1 RES     
     624 Si          30.7570    28.2600    14.2650 Si            1 RES     
     625 O           40.6880    22.2130     4.0540 O             1 RES     
     626 OS          23.5790    35.9590    15.4950 OS            1 RES     
     627 O           14.5790    32.1970     7.4600 O             1 RES     
     628 O           40.8770    38.5600     8.8240 O             1 RES     
     629 O           24.8340    43.0310     2.6420 O             1 RES     
     630 Si          30.0510    19.2360     5.0320 Si            1 RES     
     631 O           32.2550     8.4950     2.8570 O             1 RES     
     632 Si          10.2670    20.7780    14.2660 Si            1 RES     
     633 O           34.4760    30.9950    14.3700 O             1 RES     
     634 O           23.0200    32.1490    12.2200 O             1 RES     
     635 Si           6.2410    43.4290     9.5200 Si            1 RES     
     636 Si          26.1320    27.2990     4.2450 Si            1 RES     
     637 O           39.7030    43.2250     8.3650 O             1 RES     
     638 Si          34.6490     3.1510     7.7220 Si            1 RES     
     639 O           15.1550    11.3100     5.9300 O             1 RES     
     640 OS          49.2980    28.8440    15.4250 OS            1 RES     
     641 Si           5.3720    10.0700     4.4590 Si            1 RES     
     642 Si          11.8040    33.5990    14.2240 Si            1 RES     
     643 O           42.3490     7.4910    12.1660 O             1 RES     
     644 O           15.4210    40.4660    12.0290 O             1 RES     
     645 O            5.0060     4.4480     4.0530 O             1 RES     
     646 O           19.4280    45.2850     5.8050 O             1 RES     
     647 O           44.4440    46.5930    10.0370 O             1 RES     
     648 O           49.3310    32.3570     9.5320 O             1 RES     
     649 O           30.1120    26.0840     8.9200 O             1 RES     
     650 O           10.4160     1.0990     2.8170 O             1 RES     
     651 O            5.6430    34.8800     9.6260 O             1 RES     
     652 O           10.6130    29.6900     9.5080 O             1 RES     
     653 O           38.9430    30.5190     6.3560 O             1 RES     
     654 O           10.5100     8.1880     5.4640 O             1 RES     
     655 O           18.0080    49.7870    12.4920 O             1 RES     
     656 O           29.9750    18.5390     6.4630 O             1 RES     
     657 Si          43.5010     6.3350    12.2980 Si            1 RES     
     658 O           31.0460    33.8030     5.5130 O             1 RES     
     659 O            8.9270    11.8520    11.1040 O             1 RES     
     660 O           22.6540     0.6510     6.3860 O             1 RES     
     661 O           45.1230    32.2190     9.7350 O             1 RES     
     662 O           15.4250     8.6330     6.4840 O             1 RES     
     663 O           24.3040    33.2740     3.2250 O             1 RES     
     664 O           49.8890    13.0660     8.7600 O             1 RES     
     665 Si           8.1590    11.0630     5.8820 Si            1 RES     
     666 Si           9.7230     6.6800    12.0750 Si            1 RES     
     667 O            3.9800    43.3720    13.5930 O             1 RES     
     668 Si          11.2500     4.1060    12.8800 Si            1 RES     
     669 Si          28.4790     8.4120     7.7260 Si            1 RES     
     670 Si           0.5120     7.5370    12.0020 Si            1 RES     
     671 O            9.6710     5.6550     4.5980 O             1 RES     
     672 OS          13.4000    24.3310    15.2050 OS            1 RES     
     673 OS          11.0690    12.9990    14.4340 OS            1 RES     
     674 O           47.4550    13.8010     8.3070 O             1 RES     
     675 O           18.8750    25.6890    11.5620 O             1 RES     
     676 Si           9.6420    29.2860     3.6580 Si            1 RES     
     677 O            6.7420    27.7270     7.4510 O             1 RES     
     678 O           29.2080     1.5190    13.8370 O             1 RES     
     679 Si           7.3690    11.2960    10.8940 Si            1 RES     
     680 OS          31.9450    38.3100    15.3200 OS            1 RES     
     681 Si          30.6730    32.5360     9.5370 Si            1 RES     
     682 O           12.3410    33.3180     7.6750 O             1 RES     
     683 Si           5.5320    36.0130     8.4250 Si            1 RES     
     684 Si          23.0290    43.0570    11.1760 Si            1 RES     
     685 Si          40.9590     8.1710     7.5530 Si            1 RES     
     686 O           19.6480    48.2890    13.7740 O             1 RES     
     687 O           34.4150    22.6970     5.0520 O             1 RES     
     688 O           21.5930     3.0260     9.0560 O             1 RES     
     689 Si          35.2580    14.0110    11.5060 Si            1 RES     
     690 O           15.8700    32.0780     9.6110 O             1 RES     
     691 O           27.1660    18.1990     2.9840 O             1 RES     
     692 O            2.9420    29.6550     4.5650 O             1 RES     
     693 Si          25.2930    10.2740    13.0130 Si            1 RES     
     694 Si          41.6730    43.7280     5.2710 Si            1 RES     
     695 O           39.1920     0.5770     7.9150 O             1 RES     
     696 O           12.7510    19.8360     9.1320 O             1 RES     
     697 O           21.9460    42.2760    10.3200 O             1 RES     
     698 Si          27.4560    43.7230    14.4830 Si            1 RES     
     699 O           14.1980    38.2730     2.9000 O             1 RES     
     700 O           22.6260    36.9100    13.1670 O             1 RES     
     701 OS          14.4700    12.5290    14.5470 OS            1 RES     
     702 Si          32.7010    39.1420    14.1330 Si            1 RES     
     703 O           46.6200    17.8880    14.0150 O             1 RES     
     704 Si          15.9120    40.6950    13.5120 Si            1 RES     
     705 O           29.3360    32.1020     8.8840 O             1 RES     
     706 O           49.7930    10.4860     8.6050 O             1 RES     
     707 Si           6.7470    10.0170    13.5860 Si            1 RES     
     708 O           26.2920    12.6820     9.6340 O             1 RES     
     709 O            9.8200    25.0990    10.5220 O             1 RES     
     710 Si          27.4390    19.6000     3.5680 Si            1 RES     
     711 O            6.6230    14.8530     6.6910 O             1 RES     
     712 O            8.6230    49.0540    10.4420 O             1 RES     
     713 O           44.8180    26.8060    10.4470 O             1 RES     
     714 O           11.7380     9.5000     1.6330 O             1 RES     
     715 Si           3.0300    44.5360    13.2270 Si            1 RES     
     716 O           34.5170    24.8560     9.2050 O             1 RES     
     717 O           20.2360     9.1000    10.6340 O             1 RES     
     718 O           32.3420    21.8730    12.6260 O             1 RES     
     719 Si          25.7150    41.7100     2.8710 Si            1 RES     
     720 O           34.9960    19.4610     9.2060 O             1 RES     
     721 Si          41.4990    19.5180    11.1150 Si            1 RES     
     722 Si          15.2730    10.2900    12.5260 Si            1 RES     
     723 O           36.2120    18.2560     7.4380 O             1 RES     
     724 O           29.3970    36.5730     9.2700 O             1 RES     
     725 Si          22.5850    10.3320    14.4360 Si            1 RES     
     726 O            5.0300    23.2810    10.2570 O             1 RES     
     727 Si           0.3920    42.2210     4.1890 Si            1 RES     
     728 O            2.2260    26.4020     2.4270 O             1 RES     
     729 O           49.4230    18.8260    12.6940 O             1 RES     
     730 O           27.1160    27.9850     5.1480 O             1 RES     
     731 OS          48.3670     9.0130    14.5320 OS            1 RES     
     732 Si           8.2650    40.9430     4.4180 Si            1 RES     
     733 O           41.1300    22.0980     6.6650 O             1 RES     
     734 O           44.2080    17.9240    13.6000 O             1 RES     
     735 O           45.5570    31.9600     4.3400 O             1 RES     
     736 O            0.1660    19.6860     6.1490 O             1 RES     
     737 Si          33.2720     8.2920    11.3850 Si            1 RES     
     738 O           22.7000     0.6170     4.0170 O             1 RES     
     739 O           13.0960    47.7250     5.9260 O             1 RES     
     740 Si          22.7790     1.7000     2.8520 Si            1 RES     
     741 O           16.3630    13.3470     5.6630 O             1 RES     
     742 O           30.9870    48.2450    10.0420 O             1 RES     
     743 O           37.2390    49.7590     3.5030 O             1 RES     
     744 Si          30.8900    16.7310     3.3720 Si            1 RES     
     745 OS           7.2980    34.3290    14.7320 OS            1 RES     
     746 O           26.4990    44.3450     9.2110 O             1 RES     
     747 O           40.4460    40.7640    14.2890 O             1 RES     
     748 O           49.2220    26.2600     7.9750 O             1 RES     
     749 O            3.4010    39.1840    11.4160 O             1 RES     
     750 O           33.9070    31.6450     7.3760 O             1 RES     
     751 O           43.4510    15.8270    10.1300 O             1 RES     
     752 Si          46.0430    25.0580     5.6030 Si            1 RES     
     753 OS           5.7560     2.8940    15.1750 OS            1 RES     
     754 O            1.8810    26.1950     7.7000 O             1 RES     
     755 O           17.3560     2.2180    11.3970 O             1 RES     
     756 O            7.1550    17.3080     4.0380 O             1 RES     
     757 Si          42.4350    10.2010     5.9260 Si            1 RES     
     758 Si          40.6900     3.0210    11.3890 Si            1 RES     
     759 Si          44.8770    29.4980    13.5630 Si            1 RES     
     760 Si           5.6850    29.3760    13.3250 Si            1 RES     
     761 O           19.9280    29.8800    10.9250 O             1 RES     
     762 O           19.4570    20.9430     7.8900 O             1 RES     
     763 O           10.7040    13.2600     9.7220 O             1 RES     
     764 Si           0.4770     1.6020     5.9420 Si            1 RES     
     765 O            9.4100     1.3120    10.7100 O             1 RES     
     766 Si          18.7360    17.6360     9.5480 Si            1 RES     
     767 O            5.7520    47.8330    12.9800 O             1 RES     
     768 O           19.8340     7.1440     8.9810 O             1 RES     
     769 Si          18.1230     8.5540     3.6600 Si            1 RES     
     770 Si           8.9940    33.1040    10.0430 Si            1 RES     
     771 O           35.6350    37.2760     4.9160 O             1 RES     
     772 O           43.9320    30.7370     6.0400 O             1 RES     
     773 Si          10.3410    36.8300     3.1460 Si            1 RES     
     774 O           30.0060    34.1070    13.8750 O             1 RES     
     775 O           33.7480    33.1240    13.3250 O             1 RES     
     776 Si           7.3310    43.7630     4.9050 Si            1 RES     
     777 O           12.4480    23.4040     3.5910 O             1 RES     
     778 O           46.8580    41.0190     2.4920 O             1 RES     
     779 Si          11.1820    20.0760     8.8680 Si            1 RES     
     780 Si          26.8970    32.7770    12.0530 Si            1 RES     
     781 OS           9.5190    29.2930    14.2260 OS            1 RES     
     782 Si          26.7620     6.1980    14.6850 Si            1 RES     
     783 O           31.1770    38.7570     3.8720 O             1 RES     
     784 O           42.7610    36.9040     6.8720 O             1 RES     
     785 O            0.1790    45.8030    11.0080 O             1 RES     
     786 O           14.9690    39.8680     4.7060 O             1 RES     
     787 O            9.7750    30.5060     2.5650 O             1 RES     
     788 O            9.0660    14.5570    14.6320 O             1 RES     
     789 Si          26.2080    35.7160    11.4330 Si            1 RES     
     790 O           31.9000    12.8210    15.0330 O             1 RES     
     791 O           33.8200     1.8110    12.2470 O             1 RES     
     792 O           32.2410    24.6310     8.4590 O             1 RES     
     793 O           44.9250     6.9980    12.2900 O             1 RES     
     794 Si          10.0470     6.9750     9.0140 Si            1 RES     
     795 O            4.9290    13.9990     8.3470 O             1 RES     
     796 OS           1.2830    41.5700    14.2840 OS            1 RES     
     797 Si          23.0970    34.0080     6.9800 Si            1 RES     
     798 O            8.1090     9.4610    13.9870 O             1 RES     
     799 O           35.3680    49.2480     6.6070 O             1 RES     
     800 O           38.6330     3.1870     8.2330 O             1 RES     
     801 O            9.6790    38.1050     2.4130 O             1 RES     
     802 O           24.3640    25.9410     9.8980 O             1 RES     
     803 Si           1.3860     4.4330     6.3760 Si            1 RES     
     804 O           36.0720    25.4030    10.9870 O             1 RES     
     805 Si          33.3970     0.4560     4.1020 Si            1 RES     
     806 O           47.7770    45.4010     4.5940 O             1 RES     
     807 O           49.6460     0.9140     7.0600 O             1 RES     
     808 Si          49.7490    42.7510     8.8430 Si            1 RES     
     809 O           47.7090    20.8010    12.2820 O             1 RES     
     810 O           21.0710     5.0660     7.7670 O             1 RES     
     811 Si          17.6200     8.2770    12.5210 Si            1 RES     
     812 O           23.8990     8.0890     8.4830 O             1 RES     
     813 O           44.9940     6.8110     5.0230 O             1 RES     
     814 O           38.3840    27.7090     9.6910 O             1 RES     
     815 Si           2.3000    49.5910     9.1770 Si            1 RES     
     816 O           11.0760    17.9080    12.0650 O             1 RES     
     817 Si           2.4870    45.5200     5.7490 Si            1 RES     
     818 O            5.1070    13.1130     2.0220 O             1 RES     
     819 O           17.3130    17.3870    10.0950 O             1 RES     
     820 O           38.8030    18.8680     3.1010 O             1 RES     
     821 O            6.2230     5.3790     1.6200 O             1 RES     
     822 O           33.8930    37.3990    11.2720 O             1 RES     
     823 O           35.5880    37.9490    13.8270 O             1 RES     
     824 O            5.7350    22.1460    12.4840 O             1 RES     
     825 O           49.2590    31.1290     2.4940 O             1 RES     
     826 OS          32.1490    31.5930    15.2900 OS            1 RES     
     827 Si          30.0550    20.4620     9.8690 Si            1 RES     
     828 O            6.6910    21.9270     4.9560 O             1 RES     
     829 O           17.7340    21.6430     3.5230 O             1 RES     
     830 O           19.7000    45.8050    10.1940 O             1 RES     
     831 OS          49.6900    36.1200    14.0730 OS            1 RES     
     832 O           21.0350    10.2870     8.9720 O             1 RES     
     833 Si           0.3040    11.6260     9.5100 Si            1 RES     
     834 Si          47.8920    39.8850     5.9730 Si            1 RES     
     835 O           11.7290    48.3350    13.3710 O             1 RES     
     836 Si          25.8660    44.0270    10.5700 Si            1 RES     
     837 O            3.1940     0.0020     7.9500 O             1 RES     
     838 O           33.6470    34.4260     4.8550 O             1 RES     
     839 Si          30.7270    42.4020     8.4770 Si            1 RES     
     840 Si          34.7700    37.8690     3.8180 Si            1 RES     
     841 O           29.2810    20.1280    11.1720 O             1 RES     
     842 O           18.3850    35.8390     4.7270 O             1 RES     
     843 Si          45.2900    25.8680     9.3100 Si            1 RES     
     844 Si          42.5050    22.3130    10.4510 Si            1 RES     
     845 Si          15.7320    29.5360     3.7050 Si            1 RES     
     846 OS          16.8450    36.9720    15.4950 OS            1 RES     
     847 Si           9.6690    47.8430     5.4930 Si            1 RES     
     848 O           12.3740    48.9220     8.1810 O             1 RES     
     849 O           24.6360     0.9360     7.9300 O             1 RES     
     850 O           19.8080     3.0050     3.2320 O             1 RES     
     851 OS          45.8700     1.4490    15.4480 OS            1 RES     
     852 O           35.4430     0.0010    12.9260 O             1 RES     
     853 OS          20.8050    15.8240    14.3030 OS            1 RES     
     854 O            6.8130    27.9240     9.9120 O             1 RES     
     855 O           36.6000    38.8690     6.7020 O             1 RES     
     856 Si          10.1060    19.0830    11.7060 Si            1 RES     
     857 O           19.5560    15.3870     7.1320 O             1 RES     
     858 O           13.4780    47.4240     3.3610 O             1 RES     
     859 O           33.1620    11.7520    13.1050 O             1 RES     
     860 O           10.6930    26.6800     1.2410 O             1 RES     
     861 O            7.3390    23.2290    14.0230 O             1 RES     
     862 O           22.8730    22.8310    11.1670 O             1 RES     
     863 O           11.8470    21.1590     4.2940 O             1 RES     
     864 Si          21.9760    12.3940    12.3550 Si            1 RES     
     865 O           12.8560     9.6200     9.3420 O             1 RES     
     866 Si          15.5080    38.7700     3.6850 Si            1 RES     
     867 Si           1.0020    12.9160    13.8750 Si            1 RES     
     868 O           37.2780    42.6790     9.7680 O             1 RES     
     869 O            8.5470    10.3990     4.4330 O             1 RES     
     870 O            4.3780    46.6300     8.9120 O             1 RES     
     871 O           29.9050    45.6210     6.1860 O             1 RES     
     872 Si          33.6080    14.0500     6.7690 Si            1 RES     
     873 O            6.9040    14.7780     2.4800 O             1 RES     
     874 O           17.7290    46.9900     5.8550 O             1 RES     
     875 O           13.0630     2.0570     5.8520 O             1 RES     
     876 Si          18.2760    28.5300    13.6040 Si            1 RES     
     877 O           14.9550    20.6690     8.2220 O             1 RES     
     878 O           45.6690    20.0360    13.0090 O             1 RES     
     879 O           26.1070    41.4050     4.3750 O             1 RES     
     880 O           26.7350    26.8440     2.9100 O             1 RES     
     881 O           30.0560     2.9350     5.7890 O             1 RES     
     882 O           45.2980    21.2120     4.8160 O             1 RES     
     883 OS          25.4760     1.0680    15.2540 OS            1 RES     
     884 O            9.9770    10.8910     9.1250 O             1 RES     
     885 Si          15.7720    32.3240    11.1840 Si            1 RES     
     886 O           25.9570    32.4380     4.9530 O             1 RES     
     887 OS          49.0270    41.1120    15.1460 OS            1 RES     
     888 O           49.6260    38.0500     4.0950 O             1 RES     
     889 Si          27.7560    22.5190     3.0090 Si            1 RES     
     890 O            6.1310    18.0340    12.6980 O             1 RES     
     891 Si          29.6580    12.5070     4.9570 Si            1 RES     
     892 Si          20.6900     3.4160     4.4270 Si            1 RES     
     893 O           18.0140    37.6140     6.4480 O             1 RES     
     894 Si           7.4400    49.6480     6.7860 Si            1 RES     
     895 O           11.4600    42.1930     3.2080 O             1 RES     
     896 O            7.4840    42.2850     4.2520 O             1 RES     
     897 Si          49.3520    36.8980    12.8130 Si            1 RES     
     898 O           20.4090    41.3470     8.5420 O             1 RES     
     899 O           27.7690    15.8050     3.7780 O             1 RES     
     900 O           20.8050    22.5490     6.6200 O             1 RES     
     901 O           47.1940     9.1690     3.9050 O             1 RES     
     902 O           43.1990    32.2580    11.8910 O             1 RES     
     903 O            2.5250     1.7930    12.7490 O             1 RES     
     904 O           15.8720    31.1240     3.5680 O             1 RES     
     905 OS          26.3600     7.3580    15.6490 OS            1 RES     
     906 O           36.9670    23.0980    12.0190 O             1 RES     
     907 O           24.6860     5.7720     8.6550 O             1 RES     
     908 Si           3.3320    17.0320     2.8190 Si            1 RES     
     909 O           46.1960    19.5610     9.2260 O             1 RES     
     910 O            4.2990    11.6510     9.3740 O             1 RES     
     911 Si          43.9040    20.4480     4.8120 Si            1 RES     
     912 O           24.8680    35.8760    12.2940 O             1 RES     
     913 O           23.6580    18.9010     3.6840 O             1 RES     
     914 Si          14.1220    37.2970    12.4430 Si            1 RES     
     915 Si          48.3240     3.2150     9.4960 Si            1 RES     
     916 OS          21.4050     3.7750    14.5830 OS            1 RES     
     917 O            8.7600    45.0380    12.2370 O             1 RES     
     918 Si          35.3480    34.2110     9.5120 Si            1 RES     
     919 Si          47.0210     0.0510    12.4420 Si            1 RES     
     920 OS          37.9700    41.1620    15.2090 OS            1 RES     
     921 O           19.9310    33.8980     5.2210 O             1 RES     
     922 O            7.6010    34.5360     2.5650 O             1 RES     
     923 O           41.9330    37.9030     4.7360 O             1 RES     
     924 Si           6.2890    17.4690     9.5750 Si            1 RES     
     925 O           25.4360    11.1810    11.7760 O             1 RES     
     926 O           10.2860     1.4390     5.2360 O             1 RES     
     927 O           23.4720    43.8750     7.4750 O             1 RES     
     928 O            6.0160    44.9060     9.1190 O             1 RES     
     929 Si          12.5860     9.9290     3.0050 Si            1 RES     
     930 O            2.3750    15.4810     5.2860 O             1 RES     
     931 O           27.3190    29.2610    12.4900 O             1 RES     
     932 Si           5.0570    13.0090     9.6470 Si            1 RES     
     933 OS           0.8810    13.8890    15.1340 OS            1 RES     
     934 O           18.5420     5.3050     7.9260 O             1 RES     
     935 O           48.6410    43.7890     8.4790 O             1 RES     
     936 O           11.8310    30.9040    11.1600 O             1 RES     
     937 O           35.0670    13.4710     6.3520 O             1 RES     
     938 Si          42.0050    38.9920     3.5840 Si            1 RES     
     939 O            8.0640    40.0100     3.0870 O             1 RES     
     940 Si          28.7100    37.9400     8.8920 Si            1 RES     
     941 Si           1.4570     7.3840     7.0950 Si            1 RES     
     942 O           19.5950    31.6930     6.4870 O             1 RES     
     943 Si          20.2910    10.6330    10.3250 Si            1 RES     
     944 O           49.4830     9.5720     4.3120 O             1 RES     
     945 Si          49.2360    30.9390    10.2300 Si            1 RES     
     946 O           29.8460    41.2250     8.0550 O             1 RES     
     947 Si          19.0220    25.9820     7.4110 Si            1 RES     
     948 O           23.4690    13.3370     9.5400 O             1 RES     
     949 O           36.7630    30.9950    13.0960 O             1 RES     
     950 OS          26.5620    27.7310    14.5880 OS            1 RES     
     951 Si          23.9240    24.9980     8.7160 Si            1 RES     
     952 O           33.2710    37.9530    13.2690 O             1 RES     
     953 O           22.4530    21.1830    13.0020 O             1 RES     
     954 OS          11.9860    33.5310    15.7600 OS            1 RES     
     955 O           25.8540    25.8150     5.0220 O             1 RES     
     956 O           40.4720    31.4740     8.0220 O             1 RES     
     957 Si          49.0790     9.2880     7.9830 Si            1 RES     
     958 O            6.2560     6.2770    13.5190 O             1 RES     
     959 Si          34.2060    40.7980     4.4520 Si            1 RES     
     960 O           38.6100    37.7160     3.1690 O             1 RES     
     961 Si           7.0770    20.2490     8.8390 Si            1 RES     
     962 OS           2.5350     9.1180    14.9460 OS            1 RES     
     963 Si          48.9090    46.5840    11.4290 Si            1 RES     
     964 O           38.3370    26.5730     2.7100 O             1 RES     
     965 Si          34.5520     9.9310     7.0270 Si            1 RES     
     966 Si          20.0360    31.2220    10.1190 Si            1 RES     
     967 O            2.8930    22.2920     2.5400 O             1 RES     
     968 Si          27.6670    16.0710     7.8400 Si            1 RES     
     969 O           28.8060    13.8260     5.0430 O             1 RES     
     970 O           22.2570    24.7790    14.1770 O             1 RES     
     971 Si          24.8180    12.7050    10.9700 Si            1 RES     
     972 Si          48.9160    33.1910     8.2340 Si            1 RES     
     973 Si          19.3220    38.0950    12.5930 Si            1 RES     
     974 Si           1.9380    35.8990    11.6940 Si            1 RES     
     975 OS           5.2630    22.3380    14.8900 OS            1 RES     
     976 O           49.5410    47.6210    12.5080 O             1 RES     
     977 O           45.7460    37.2740    11.2740 O             1 RES     
     978 O           41.7790    30.2140    12.0810 O             1 RES     
     979 O            9.6630    30.5690    12.2770 O             1 RES     
     980 Si          19.9030    14.9890     8.5670 Si            1 RES     
     981 O           25.7710     4.4830     6.4720 O             1 RES     
     982 O           45.7780    22.3830    11.6510 O             1 RES     
     983 Si          10.2130    48.5270    13.7610 Si            1 RES     
     984 OS          26.2890    10.8470    14.2120 OS            1 RES     
     985 O           48.9850    32.2290     4.6010 O             1 RES     
     986 Si          37.7750    39.8480     6.4840 Si            1 RES     
     987 OS          12.0190    38.7130    15.5210 OS            1 RES     
     988 O            8.1810     1.0180     6.6000 O             1 RES     
     989 O            7.9860     9.8280     2.0970 O             1 RES     
     990 OS           1.8350     6.6180    15.5940 OS            1 RES     
     991 Si          29.5330    33.3360     5.4390 Si            1 RES     
     992 O           46.2350    23.4670     5.7550 O             1 RES     
     993 Si          17.2150    28.3100     6.4770 Si            1 RES     
     994 O           23.2530     7.7300     5.9480 O             1 RES     
     995 O           20.2230    41.7250     6.0320 O             1 RES     
     996 Si          14.1060     2.9270    12.3560 Si            1 RES     
     997 O           19.4250    26.0820     8.9530 O             1 RES     
     998 Si           7.2080    48.9900     9.7760 Si            1 RES     
     999 O           13.0180    37.7460    13.3970 O             1 RES     
    1000 Si          49.0280    16.6680     9.7360 Si            1 RES     
    1001 O           38.7140    39.7180     7.7470 O             1 RES     
    1002 OS           9.2220    24.8510    14.4470 OS            1 RES     
    1003 Si          30.7840    46.8420     5.9520 Si            1 RES     
    1004 O           10.4830    29.8580     4.8470 O             1 RES     
    1005 O           43.3200    41.9460     1.6670 O             1 RES     
    1006 Si          18.2410    12.9120    10.1490 Si            1 RES     
    1007 Si          41.1410    35.1330    13.6130 Si            1 RES     
    1008 O           10.7840    43.1810    10.3760 O             1 RES     
    1009 O           42.2450    42.8690     9.2390 O             1 RES     
    1010 Si          28.5000    22.7930     8.3570 Si            1 RES     
    1011 O            4.2370    21.0310    10.8790 O             1 RES     
    1012 O           31.8450     8.4730    11.9550 O             1 RES     
    1013 O           44.0220    22.2570     9.9290 O             1 RES     
    1014 Si          39.1410    49.3650     6.8780 Si            1 RES     
    1015 O           10.8590    15.6080    13.4570 O             1 RES     
    1016 Si           5.3790     0.2450     4.5480 Si            1 RES     
    1017 O            8.0870    10.3600     7.2540 O             1 RES     
    1018 O           29.9120    43.3700     9.5960 O             1 RES     
    1019 Si          30.9070    25.1600    14.4120 Si            1 RES     
    1020 Si          43.3470    17.3420     9.7490 Si            1 RES     
    1021 O           21.2180    38.5560     4.1250 O             1 RES     
    1022 Si          46.2780    18.2610    10.0530 Si            1 RES     
    1023 O           19.3690    39.5920     7.2420 O             1 RES     
    1024 O           47.3990    13.5140     4.6950 O             1 RES     
    1025 Si          29.8150    33.5000    12.2720 Si            1 RES     
    1026 O           29.7090     4.6080     3.9520 O             1 RES     
    1027 O           24.4790     6.5760     3.9720 O             1 RES     
    1028 Si          45.4830     0.4720     2.9760 Si            1 RES     
    1029 O           42.9600    21.7040     4.9030 O             1 RES     
    1030 O           11.2310    19.0010     2.7990 O             1 RES     
    1031 Si          30.8700     8.1510     3.5780 Si            1 RES     
    1032 OS          16.8270    17.6410    14.8210 OS            1 RES     
    1033 Si          10.7240    44.5390     9.5680 Si            1 RES     
    1034 O           44.5910     3.2770    10.0920 O             1 RES     
    1035 O           40.6880    12.9890    12.1640 O             1 RES     
    1036 O           23.7620    34.0750     5.5450 O             1 RES     
    1037 O           28.5770    19.4320     4.6810 O             1 RES     
    1038 Si          48.8450    32.4750     3.0400 Si            1 RES     
    1039 OS          40.7360    34.0150    14.6210 OS            1 RES     
    1040 O            2.2640    28.7650    11.3580 O             1 RES     
    1041 O            8.7090    18.4050    12.0580 O             1 RES     
    1042 Si          36.6600    29.8290     3.7120 Si            1 RES     
    1043 O           24.6190    21.3980     7.7070 O             1 RES     
    1044 Si          39.7760    27.3710    10.4760 Si            1 RES     
    1045 O           48.4250    30.9370    11.5870 O             1 RES     
    1046 O           36.1050     3.2680     8.2910 O             1 RES     
    1047 O           12.4430     1.3040     8.2790 O             1 RES     
    1048 Si          33.4360    16.4340    10.8380 Si            1 RES     
    1049 Si          30.7530     4.1730     5.0870 Si            1 RES     
    1050 O           10.8410    34.8060    13.8500 O             1 RES     
    1051 O            6.1070    38.0600     5.8620 O             1 RES     
    1052 OS           4.9900    43.2930    16.0260 OS            1 RES     
    1053 O           38.6680    36.4770     8.9480 O             1 RES     
    1054 Si          11.1630     9.6020     5.7720 Si            1 RES     
    1055 O           39.5670    11.5030    13.8690 O             1 RES     
    1056 Si           7.2630    35.2140    13.4180 Si            1 RES     
    1057 OS          29.3670     2.6850    15.8010 OS            1 RES     
    1058 Si          40.3730    14.4940     8.7190 Si            1 RES     
    1059 O           49.6810    32.3530     7.0340 O             1 RES     
    1060 O           14.2170    22.5440    13.1760 O             1 RES     
    1061 O           33.6960    15.5260     7.1440 O             1 RES     
    1062 O           34.6540    49.6130     3.8450 O             1 RES     
    1063 O            0.6790    30.3410     5.3820 O             1 RES     
    1064 Si          19.0850    48.6460    12.2470 Si            1 RES     
    1065 OS           1.4720    11.5150    14.5240 OS            1 RES     
    1066 Si          22.1510     2.9900    10.5480 Si            1 RES     
    1067 O            2.4910    18.3390     2.9200 O             1 RES     
    1068 Si          46.3210    41.5570     3.9180 Si            1 RES     
    1069 O           30.9560    10.9060    13.9280 O             1 RES     
    1070 O           20.6750    35.7400     9.5880 O             1 RES     
    1071 O           44.1660    26.3470     8.2340 O             1 RES     
    1072 Si           0.5010    25.4290     7.9210 Si            1 RES     
    1073 O           25.2210    39.4880     5.9300 O             1 RES     
    1074 O           46.3090    35.2350    12.6710 O             1 RES     
    1075 Si          37.1430    14.4360    13.9330 Si            1 RES     
    1076 O           19.1550     7.3510     3.9290 O             1 RES     
    1077 O           24.3180    25.4750     7.2570 O             1 RES     
    1078 O           44.5330    42.4470    10.6150 O             1 RES     
    1079 O           32.8890    37.2560     8.9580 O             1 RES     
    1080 O            1.4300     7.6250    13.2710 O             1 RES     
    1081 Si          10.0770    18.5520     6.3800 Si            1 RES     
    1082 Si          15.4110    12.2030     8.9330 Si            1 RES     
    1083 Si          23.5250    22.0570    12.3530 Si            1 RES     
    1084 O           32.6580    29.0700    10.7970 O             1 RES     
    1085 O           18.9780    11.5120    10.0640 O             1 RES     
    1086 O           25.6930    19.3670    13.4870 O             1 RES     
    1087 O           42.1530     9.8200     4.4030 O             1 RES     
    1088 O           31.5440    17.1520    13.7880 O             1 RES     
    1089 Si          37.0160    43.9250    13.0280 Si            1 RES     
    1090 O           18.3820     7.7760    11.1990 O             1 RES     
    1091 O           38.9300    21.2260    12.9580 O             1 RES     
    1092 Si          19.9120    25.9010    10.4390 Si            1 RES     
    1093 O           29.4740    12.4970    12.3920 O             1 RES     
    1094 Si          21.2670    39.6860     3.0300 Si            1 RES     
    1095 O           10.3610    44.5950     2.8460 O             1 RES     
    1096 O           19.7400    45.9700     3.4200 O             1 RES     
    1097 Si          18.8430    10.6020     5.8770 Si            1 RES     
    1098 O           11.3070    24.0840     8.6510 O             1 RES     
    1099 O           21.1670     1.4560    13.9310 O             1 RES     
    1100 O            8.0970    29.2030     4.1690 O             1 RES     
    1101 O           33.8360    10.8010     2.9710 O             1 RES     
    1102 O            1.1100    20.6060     3.1090 O             1 RES     
    1103 Si          46.7980    20.7630     8.3390 Si            1 RES     
    1104 O           12.9400    38.4750     8.8170 O             1 RES     
    1105 Si          29.6600    44.8580    10.0510 Si            1 RES     
    1106 O           11.2120    15.4640     8.3510 O             1 RES     
    1107 Si          39.6190     2.0610     8.6460 Si            1 RES     
    1108 O           19.3910    39.6610    12.7410 O             1 RES     
    1109 O           47.5620     7.4470     5.5700 O             1 RES     
    1110 Si          39.2700    36.7440    10.3940 Si            1 RES     
    1111 O           43.0340    18.0030     8.3440 O             1 RES     
    1112 Si           7.5990    15.1760    14.5160 Si            1 RES     
    1113 Si          31.7660     6.8110     9.2550 Si            1 RES     
    1114 O            2.4310    20.7180     6.6690 O             1 RES     
    1115 Si          41.7730    44.6900    12.3280 Si            1 RES     
    1116 Si          37.5220    22.0300    13.0870 Si            1 RES     
    1117 O           28.3720    33.8490     7.0030 O             1 RES     
    1118 O           12.9090    27.3060    12.5350 O             1 RES     
    1119 Si           4.1990     5.0560    10.8450 Si            1 RES     
    1120 O           39.9540     5.4880     5.1340 O             1 RES     
    1121 OS          20.7270    20.6660    15.7570 OS            1 RES     
    1122 Si           2.1290    14.5270     4.0690 Si            1 RES     
    1123 Si          23.8080     8.7590     7.0580 Si            1 RES     
    1124 O           15.0930     0.7780     4.4410 O             1 RES     
    1125 O           34.8950     4.1750     6.5650 O             1 RES     
    1126 O           34.3920    29.4680    12.5620 O             1 RES     
    1127 Si          15.1170    13.2130    13.2810 Si            1 RES     
    1128 O            3.3300    22.7720     8.3380 O             1 RES     
    1129 O           12.2920    44.5360     9.1110 O             1 RES     
    1130 O            6.9350    20.8710     7.3810 O             1 RES     
    1131 Si           8.2440    37.4110     8.3920 Si            1 RES     
    1132 O           25.8330    15.4440    13.8280 O             1 RES     
    1133 Si          13.5490    34.3190    11.9030 Si            1 RES     
    1134 Si          19.7110     7.5830    10.4450 Si            1 RES     
    1135 Si          28.6080    15.3720     4.9640 Si            1 RES     
    1136 O           39.9930     4.1720     3.0720 O             1 RES     
    1137 Si          25.0340    32.0940     8.5620 Si            1 RES     
    1138 OS          40.7010     2.1550    15.2440 OS            1 RES     
    1139 Si          20.9400    24.0480    14.7090 Si            1 RES     
    1140 O           43.6290    33.2150     5.0040 O             1 RES     
    1141 Si          11.3430    41.5240     4.6710 Si            1 RES     
    1142 Si          27.0130    13.1390     8.3330 Si            1 RES     
    1143 Si          48.9600    13.6160     4.9470 Si            1 RES     
    1144 O           26.9220    29.1920     9.9540 O             1 RES     
    1145 Si           6.3490    26.5680     6.4490 Si            1 RES     
    1146 O           26.2180     3.1580    10.9840 O             1 RES     
    1147 O           33.2120    16.3800     9.3320 O             1 RES     
    1148 O           22.4110    48.4080    14.1910 O             1 RES     
    1149 O            6.4260    34.7250    12.1420 O             1 RES     
    1150 O           19.1830    48.4110     2.8480 O             1 RES     
    1151 Si           2.8540    46.5740     8.6460 Si            1 RES     
    1152 O           40.5630    35.5950     5.7950 O             1 RES     
    1153 O           33.2630    10.6490     7.6910 O             1 RES     
    1154 O           30.9350    23.7710    13.4950 O             1 RES     
    1155 O           44.8170    49.4930     6.4370 O             1 RES     
    1156 O           15.8050     0.2400    11.7960 O             1 RES     
    1157 Si          29.1690    40.2680     6.9740 Si            1 RES     
    1158 Si           3.3640     3.1370    13.0630 Si            1 RES     
    1159 O           24.2300    32.0940     9.9360 O             1 RES     
    1160 OS          12.1450    28.5980    14.5190 OS            1 RES     
    1161 O           36.0060    14.0500    12.9430 O             1 RES     
    1162 Si           4.1400    31.8930    12.2360 Si            1 RES     
    1163 O           13.9600    35.7890    11.8600 O             1 RES     
    1164 O           10.1560    17.0980     6.7790 O             1 RES     
    1165 O           31.4100    38.4720    11.0010 O             1 RES     
    1166 O           16.3110     9.1870    12.1930 O             1 RES     
    1167 O           49.7160     6.1130    11.9960 O             1 RES     
    1168 Si          46.2190     6.7850     6.0930 Si            1 RES     
    1169 OS          15.5620    23.4400    15.1250 OS            1 RES     
    1170 O           49.4500     8.6740    12.1600 O             1 RES     
    1171 Si          37.3660     3.2600    13.5820 Si            1 RES     
    1172 O            0.5590    24.8310     9.4250 O             1 RES     
    1173 OS          45.0770     3.5510    14.3830 OS            1 RES     
    1174 O           31.0190    12.8100     4.2520 O             1 RES     
    1175 O           42.5120    13.8110     3.3200 O             1 RES     
    1176 O           44.9820    35.0040     3.9540 O             1 RES     
    1177 Si          47.8900    40.3320     9.3920 Si            1 RES     
    1178 O           40.7650    19.2600    12.4870 O             1 RES     
    1179 O           49.3310    34.6780     8.0710 O             1 RES     
    1180 O            6.5610     9.2230     3.8240 O             1 RES     
    1181 O           34.6850    12.5290    11.3780 O             1 RES     
    1182 Si          24.1050    39.4900    10.4800 Si            1 RES     
    1183 O           33.2570     0.2650     5.6660 O             1 RES     
    1184 O           22.7900     9.8900     7.1890 O             1 RES     
    1185 O           32.6950    35.6060     6.7950 O             1 RES     
    1186 O            5.9340    28.2390    12.2320 O             1 RES     
    1187 O           29.9530    15.9870     4.5410 O             1 RES     
    1188 Si          45.8740    13.8780     8.0790 Si            1 RES     
    1189 O           43.1760    24.2670    13.5710 O             1 RES     
    1190 O           34.1640    17.8210    10.9570 O             1 RES     
    1191 OS          18.3720    44.3820    14.6580 OS            1 RES     
    1192 Si          49.1160    20.2060    11.9690 Si            1 RES     
    1193 O           15.7400    10.8380     8.1330 O             1 RES     
    1194 Si           5.7440    46.3750     9.5310 Si            1 RES     
    1195 O           38.2740    24.3050    10.1730 O             1 RES     
    1196 O           43.1520     1.7600     6.8610 O             1 RES     
    1197 O           24.4440    16.8930     9.2070 O             1 RES     
    1198 Si          47.1230    44.1060     8.0430 Si            1 RES     
    1199 Si          32.3110    13.8020     4.0170 Si            1 RES     
    1200 O           27.0840     0.2090     8.7460 O             1 RES     
    1201 Si          42.5260    24.7440    12.2770 Si            1 RES     
    1202 O           48.5480     9.5350     6.5140 O             1 RES     
    1203 O           32.0830     5.2400     9.5810 O             1 RES     
    1204 Si          30.7770     6.9750     6.3810 Si            1 RES     
    1205 O           32.6560    17.3460     3.5770 O             1 RES     
    1206 Si          22.9830    46.9500     5.2330 Si            1 RES     
    1207 Si          10.7820    22.8880     7.5800 Si            1 RES     
    1208 O           37.9150    35.4680     2.4360 O             1 RES     
    1209 Si          19.3800    43.8850    13.4490 Si            1 RES     
    1210 Si          28.5620    10.2560     3.2980 Si            1 RES     
    1211 O           39.5970     8.4610     6.8880 O             1 RES     
    1212 O           28.0860    27.0470    12.8440 O             1 RES     
    1213 Si          12.4540     0.0520     9.2110 Si            1 RES     
    1214 O           46.1330    18.2330    11.5320 O             1 RES     
    1215 O           25.1730     9.3400     6.4250 O             1 RES     
    1216 O           33.3330    44.0330    10.0310 O             1 RES     
    1217 O           41.8390    24.0760     5.2260 O             1 RES     
    1218 Si          37.3600    17.2670     7.9960 Si            1 RES     
    1219 Si          28.2610    28.7300     5.8670 Si            1 RES     
    1220 Si          30.2820     8.1480    12.0040 Si            1 RES     
    1221 O            3.8730     2.3210     7.7110 O             1 RES     
    1222 O            9.8770    49.4910    12.5530 O             1 RES     
    1223 O           14.0220    10.2330    11.5570 O             1 RES     
    1224 Si          22.5800    13.5060     8.3100 Si            1 RES     
    1225 O           49.1180     1.8730     9.3660 O             1 RES     
    1226 OS          10.3530    10.2990    14.1460 OS            1 RES     
    1227 Si          48.9490    14.0960     8.0240 Si            1 RES     
    1228 Si          46.8790     3.8960     6.8860 Si            1 RES     
    1229 O           35.4650    32.8620     6.0240 O             1 RES     
    1230 O           27.1510    37.9040     8.7450 O             1 RES     
    1231 Si          17.7620    23.1290     3.9820 Si            1 RES     
    1232 O           26.4320    17.0710     7.9550 O             1 RES     
    1233 O           23.7870    28.9780    13.9750 O             1 RES     
    1234 O           14.9030    22.0870     6.1110 O             1 RES     
    1235 O           16.5420    43.3890     8.1150 O             1 RES     
    1236 O            0.9190    22.9880     4.2150 O             1 RES     
    1237 Si          17.7200    13.2740     4.9340 Si            1 RES     
    1238 O            5.8700     8.7590    13.6460 O             1 RES     
    1239 O            5.1420    42.4580     8.9610 O             1 RES     
    1240 O           34.5830     8.8080     5.8920 O             1 RES     
    1241 O           27.9120    44.4110     6.9660 O             1 RES     
    1242 Si          48.7060    12.1020    12.1750 Si            1 RES     
    1243 O           18.3710    13.4360    11.6530 O             1 RES     
    1244 O           40.0080     4.3710    11.6840 O             1 RES     
    1245 O           18.3840    14.6960     5.1130 O             1 RES     
    1246 O            5.2630    46.3220    11.0400 O             1 RES     
    1247 O           47.8390    21.1070     5.3680 O             1 RES     
    1248 Si          26.3970    15.0080    12.4620 Si            1 RES     
    1249 O           42.3170    26.3140     6.2530 O             1 RES     
    1250 O           25.3350     7.2390    10.7060 O             1 RES     
    1251 Si          31.4810    26.0880     8.1040 Si            1 RES     
    1252 O           49.2420    36.2610     5.9950 O             1 RES     
    1253 O           46.9280     2.4810     9.7930 O             1 RES     
    1254 O           36.5390    30.8970     7.4160 O             1 RES     
    1255 O           32.5680    21.7720     6.0700 O             1 RES     
    1256 O            1.2920    19.6120     8.2810 O             1 RES     
    1257 O           24.1240    12.2340     5.0580 O             1 RES     
    1258 Si           3.8400     3.8590     8.0030 Si            1 RES     
    1259 Si           2.7330     7.5870     9.8720 Si            1 RES     
    1260 Si           3.3400    38.4150    12.7900 Si            1 RES     
    1261 OS          17.5840    22.2940    14.2440 OS            1 RES     
    1262 O            7.5060    25.9090    11.4880 O             1 RES     
    1263 Si           8.4160    24.7610     7.8710 Si            1 RES     
    1264 O            1.2370    16.9980    13.2580 O             1 RES     
    1265 O           14.4070     2.7210     7.7180 O             1 RES     
    1266 O           25.0570    40.4720    11.2770 O             1 RES     
    1267 O           21.3450    31.9200     4.4470 O             1 RES     
    1268 Si          11.9350    39.3810     9.6200 Si            1 RES     
    1269 Si          12.9040     2.3990     7.3500 Si            1 RES     
    1270 O           34.6530     4.1580     4.0910 O             1 RES     
    1271 Si          20.6580    32.5660     5.7020 Si            1 RES     
    1272 O            9.9550     6.7670    10.5320 O             1 RES     
    1273 OS          18.4200    12.3350    14.1680 OS            1 RES     
    1274 O            6.3270    49.7210     5.6860 O             1 RES     
    1275 O           28.0230    23.1170     4.3880 O             1 RES     
    1276 Si          13.5940     1.3770     4.4050 Si            1 RES     
    1277 O           26.0460    12.7870     7.0520 O             1 RES     
    1278 Si           8.1330    39.0510    11.0320 Si            1 RES     
    1279 O           29.3400     0.0210     9.9030 O             1 RES     
    1280 O           20.6290    19.5290    12.8240 O             1 RES     
    1281 O           46.3110    16.6070     5.0460 O             1 RES     
    1282 O           35.1690     9.0720     8.2150 O             1 RES     
    1283 O           22.7640    36.2150    10.5800 O             1 RES     
    1284 O           21.7240     4.2780    11.3080 O             1 RES     
    1285 O           30.1630    19.2540     8.8420 O             1 RES     
    1286 O           10.6230    37.1910    13.7770 O             1 RES     
    1287 OS          39.8690    47.9840    14.0180 OS            1 RES     
    1288 Si          15.8320    17.6140    10.7090 Si            1 RES     
    1289 OS          22.3720    44.6030    15.7930 OS            1 RES     
    1290 O           49.4760    39.6740     5.8810 O             1 RES     
    1291 Si          39.0210    26.4570    13.3240 Si            1 RES     
    1292 O           17.5210    13.0590     3.3260 O             1 RES     
    1293 Si          13.2090    43.8680     5.5150 Si            1 RES     
    1294 OS          42.7060    40.5940    15.8250 OS            1 RES     
    1295 O           36.7560    28.3420     3.2740 O             1 RES     
    1296 O            0.1930     8.2110     7.5440 O             1 RES     
    1297 O           40.9160     8.9220     9.0310 O             1 RES     
    1298 OS           6.2970    11.2340    14.4080 OS            1 RES     
    1299 OS           7.4210    16.1880    15.7340 OS            1 RES     
    1300 Si          35.5870    48.5000    12.5270 Si            1 RES     
    1301 OS          46.7670    15.3050    15.7320 OS            1 RES     
    1302 O           32.5230    30.9610    12.8910 O             1 RES     
    1303 Si          26.3850    30.8540     4.7940 Si            1 RES     
    1304 Si          21.2500     0.8260    12.5180 Si            1 RES     
    1305 O            8.7310    35.5060    12.9560 O             1 RES     
    1306 O           21.1900    32.7920    13.7720 O             1 RES     
    1307 O           28.7420    44.1770    13.7490 O             1 RES     
    1308 O           27.9370    28.7950     7.4510 O             1 RES     
    1309 Si          32.3110     1.7010    11.9900 Si            1 RES     
    1310 O           20.8080     3.1280     6.0350 O             1 RES     
    1311 O           40.3960    19.4270    10.0400 O             1 RES     
    1312 O            8.1620    44.6540     3.9810 O             1 RES     
    1313 O           31.2400    47.1840     7.4300 O             1 RES     
    1314 O           23.7120     2.8520    10.9510 O             1 RES     
    1315 Si          21.9530    49.8670     5.1650 Si            1 RES     
    1316 O           28.4080    32.9060    12.4150 O             1 RES     
    1317 Si           2.6000    39.6720    10.1250 Si            1 RES     
    1318 Si          14.2540    20.1500     9.5970 Si            1 RES     
    1319 Si          33.7110    11.3420    11.5940 Si            1 RES     
    1320 O            2.3200    36.0940    10.2110 O             1 RES     
    1321 Si          33.6340    36.2480     7.9020 Si            1 RES     
    1322 Si          41.6060     1.6380    14.0500 Si            1 RES     
    1323 OS          38.0030    27.3230    14.0780 OS            1 RES     
    1324 O           10.7800     5.6640    12.5930 O             1 RES     
    1325 O           24.1490    43.2310    10.0890 O             1 RES     
    1326 O           43.1390    28.5830    10.8060 O             1 RES     
    1327 O           47.2410     5.9820    11.9870 O             1 RES     
    1328 Si          13.1380    10.7930    10.3950 Si            1 RES     
    1329 O           17.1380    33.0670    11.5390 O             1 RES     
    1330 Si          26.4910    29.8150    11.3490 Si            1 RES     
    1331 O           18.5480    12.0030     5.4170 O             1 RES     
    1332 O           31.5450    35.9710     4.5650 O             1 RES     
    1333 OS          44.7380    47.6000    14.9660 OS            1 RES     
    1334 Si           0.7740    47.0520     3.7350 Si            1 RES     
    1335 O            2.5520     7.5940     3.3250 O             1 RES     
    1336 Si          45.9920    32.1560     8.3110 Si            1 RES     
    1337 O           44.3380    46.0900     7.4270 O             1 RES     
    1338 Si          43.0130    29.5670     5.5960 Si            1 RES     
    1339 Si          43.2570     4.0900    10.1390 Si            1 RES     
    1340 O            6.7530    10.6080    12.1240 O             1 RES     
    1341 Si          27.4220     3.6870    10.1520 Si            1 RES     
    1342 OS          48.3360    17.2730    15.7300 OS            1 RES     
    1343 O           20.0630    39.6790     1.9350 O             1 RES     
    1344 O           17.8060     0.4220     4.2120 O             1 RES     
    1345 O           38.2740     6.0910    11.2360 O             1 RES     
    1346 O            4.5930    39.7580     5.1360 O             1 RES     
    1347 Si          28.9100     1.9180     6.1170 Si            1 RES     
    1348 O           11.7560     6.7500     4.0410 O             1 RES     
    1349 Si          24.7800    37.9610     5.9250 Si            1 RES     
    1350 O            9.0370     8.2650     8.6630 O             1 RES     
    1351 O           24.0770    12.4170     2.5300 O             1 RES     
    1352 O           37.7560    32.9340     2.4400 O             1 RES     
    1353 OS           4.5950    49.1400    14.5170 OS            1 RES     
    1354 O           24.6140    21.0140    11.8510 O             1 RES     
    1355 O           22.9150    25.2500     2.6540 O             1 RES     
    1356 O           13.2480    46.0200    12.6720 O             1 RES     
    1357 O           10.7970    47.4620     6.5500 O             1 RES     
    1358 Si          21.8370    41.1810     9.1520 Si            1 RES     
    1359 OS          41.2430    31.7290    14.0450 OS            1 RES     
    1360 O            9.1480     7.9230     3.5290 O             1 RES     
    1361 Si          40.5370     9.9940    10.0790 Si            1 RES     
    1362 O            5.7350     5.3190    11.2190 O             1 RES     
    1363 O            1.9570    38.9090     4.9630 O             1 RES     
    1364 O           39.2870    40.1540    10.0700 O             1 RES     
    1365 O            3.8470    17.0590     4.3490 O             1 RES     
    1366 OS           6.1870    38.7680    14.8600 OS            1 RES     
    1367 O           17.8950    41.6230     7.1700 O             1 RES     
    1368 Si          41.1600    32.1080     9.2800 Si            1 RES     
    1369 Si           7.5300    18.7090     4.5500 Si            1 RES     
    1370 O           39.2430    10.7900     9.7430 O             1 RES     
    1371 O           38.8950    14.7690     9.3090 O             1 RES     
    1372 O            6.8580    36.6660    13.7220 O             1 RES     
    1373 Si          32.5590    37.3940    10.4550 Si            1 RES     
    1374 O           36.1270    46.5280     6.8370 O             1 RES     
    1375 O           35.6710     7.5290     3.6010 O             1 RES     
    1376 Si          41.2410     5.5420     6.0670 Si            1 RES     
    1377 O           44.3530    47.2570     5.2990 O             1 RES     
    1378 O           21.0960    11.5510    11.3260 O             1 RES     
    1379 O           36.3140    47.7270     2.8030 O             1 RES     
    1380 Si           3.2690     7.8770     4.6890 Si            1 RES     
    1381 Si          44.3260    32.8360    10.9620 Si            1 RES     
    1382 O            5.9080    44.4830     4.7470 O             1 RES     
    1383 O           37.8670    48.5510     6.9750 O             1 RES     
    1384 Si          47.7890    29.7170     7.8140 Si            1 RES     
    1385 O           10.5360    45.8010    10.8160 O             1 RES     
    1386 O           30.0420     6.9110     3.1560 O             1 RES     
    1387 O           29.3280    25.3040     5.3200 O             1 RES     
    1388 O            2.6590     4.1220     4.7300 O             1 RES     
    1389 O            3.6920    39.0040     2.9030 O             1 RES     
    1390 O           46.0630     7.6860    10.0550 O             1 RES     
    1391 O           16.5760    13.7940    13.5320 O             1 RES     
    1392 Si          42.8980    39.7550    11.7930 Si            1 RES     
    1393 Si          44.6300    32.1160     5.5620 Si            1 RES     
    1394 Si           6.6730    28.6420     4.1830 Si            1 RES     
    1395 OS          13.7190    26.7830    15.1490 OS            1 RES     
    1396 O           35.2920    12.1580     4.2350 O             1 RES     
    1397 O           23.1660    15.8090     4.5290 O             1 RES     
    1398 O           36.2370    33.6100    13.1820 O             1 RES     
    1399 O            7.7920    19.5000     3.2450 O             1 RES     
    1400 Si          39.0220    39.1650     3.7950 Si            1 RES     
    1401 O           38.6900    39.3440     5.2950 O             1 RES     
    1402 Si          20.5840    46.4850     9.0350 Si            1 RES     
    1403 Si          26.1220     6.8770     3.7100 Si            1 RES     
    1404 O           20.6050    27.2480    10.9330 O             1 RES     
    1405 O           42.4750    43.0040     4.0240 O             1 RES     
    1406 O           48.6060    16.6050     3.7510 O             1 RES     
    1407 O           31.7590    28.7610    13.1040 O             1 RES     
    1408 O           17.4440    10.2380     6.5740 O             1 RES     
    1409 O           29.8050     9.3610     3.5760 O             1 RES     
    1410 OS          10.0160     7.8800    15.3240 OS            1 RES     
    1411 O           24.9300     2.2730     5.9240 O             1 RES     
    1412 Si          31.2540    22.1560    13.7340 Si            1 RES     
    1413 O           28.3520    10.3970     1.7180 O             1 RES     
    1414 O           45.0480    49.2860     3.9300 O             1 RES     
    1415 O           48.9510    41.4400     9.0160 O             1 RES     
    1416 Si          23.2200    44.8880     8.7860 Si            1 RES     
    1417 O           46.5110    30.6330     8.0910 O             1 RES     
    1418 Si           2.9310    20.3950    11.4460 Si            1 RES     
    1419 O           37.0440    36.4570     7.0990 O             1 RES     
    1420 O           23.2340    45.3400    13.3730 O             1 RES     
    1421 Si           4.5790    17.8720    12.0130 Si            1 RES     
    1422 O           31.9420    31.6430     9.0490 O             1 RES     
    1423 Si          20.8980    21.6300     7.9010 Si            1 RES     
    1424 O           20.6810    24.5750    10.5290 O             1 RES     
    1425 Si          49.8680    39.7510    11.6200 Si            1 RES     
    1426 O           46.8890    41.2540    10.2250 O             1 RES     
    1427 OS          27.9750    42.7650    15.5640 OS            1 RES     
    1428 Si          41.9310    29.5470    10.6970 Si            1 RES     
    1429 O            0.9740     5.9620     6.5700 O             1 RES     
    1430 O           15.6560    34.3010     8.0550 O             1 RES     
    1431 O           11.1760    49.7570    10.1540 O             1 RES     
    1432 O           16.9850    20.3870     6.9930 O             1 RES     
    1433 O           21.1540    22.3680     9.2110 O             1 RES     
    1434 Si           7.0370     4.9610    12.2210 Si            1 RES     
    1435 O            2.4470     0.3440    10.6000 O             1 RES     
    1436 Si          34.4530    45.6960    12.7250 Si            1 RES     
    1437 O           35.4760     0.9680    10.6270 O             1 RES     
    1438 OS          36.0920     3.5090    14.4360 OS            1 RES     
    1439 O           38.3100    16.9160     6.8450 O             1 RES     
    1440 Si          49.5990    10.9130     3.3680 Si            1 RES     
    1441 O           30.3820    40.4390    11.8390 O             1 RES     
    1442 O            2.3780    48.0490     9.1800 O             1 RES     
    1443 O           11.9200    35.5030     8.8340 O             1 RES     
    1444 Si          11.6610    42.2820    11.3350 Si            1 RES     
    1445 O           16.2840     2.2140     9.1100 O             1 RES     
    1446 O           28.8800    23.1380     6.8910 O             1 RES     
    1447 Si          15.1530     8.2330     3.0780 Si            1 RES     
    1448 O           37.6080    16.6840     3.1480 O             1 RES     
    1449 O           16.5280    23.4710     4.8550 O             1 RES     
    1450 O            2.0400    19.3430    10.6480 O             1 RES     
    1451 O           26.6770    32.2300     8.4070 O             1 RES     
    1452 O           34.8490    45.1810     8.5100 O             1 RES     
    1453 O           44.2890    39.3050    11.3820 O             1 RES     
    1454 O           33.8490    20.4930    11.2560 O             1 RES     
    1455 O           22.5550    39.5800     2.1820 O             1 RES     
    1456 O           42.6690    41.1440    11.1220 O             1 RES     
    1457 O            1.5370    26.3480    11.4820 O             1 RES     
    1458 Si          28.9500    49.9680    13.8490 Si            1 RES     
    1459 O            6.7110    37.0250     8.4600 O             1 RES     
    1460 O           40.4520    26.0420     4.4160 O             1 RES     
    1461 Si           1.4310    29.3570     4.3530 Si            1 RES     
    1462 Si          29.4410    44.1440     6.3630 Si            1 RES     
    1463 Si          34.5620    37.2000    12.6940 Si            1 RES     
    1464 O           15.4150    17.9690     3.7480 O             1 RES     
    1465 OS          20.4180    47.7500    16.1300 OS            1 RES     
    1466 O           48.6890    29.9460     9.1440 O             1 RES     
    1467 Si          19.7040    35.1190     4.3010 Si            1 RES     
    1468 O           24.8300    49.2830    13.5330 O             1 RES     
    1469 Si           9.2350    40.2780     8.5050 Si            1 RES     
    1470 O           10.1700    22.6780     3.4770 O             1 RES     
    1471 O           28.0260    48.4980     3.9550 O             1 RES     
    1472 Si          10.2590     7.0960     4.3300 Si            1 RES     
    1473 Si          10.7680     0.3680     4.1590 Si            1 RES     
    1474 O            7.4330    33.4430    10.3300 O             1 RES     
    1475 O           37.5930    12.8270     9.0240 O             1 RES     
    1476 O           39.2760    49.7930     5.2960 O             1 RES     
    1477 Si          41.8360    40.0350    14.6450 Si            1 RES     
    1478 Si          40.4220    22.1860     8.0240 Si            1 RES     
    1479 O           41.5440    30.2860     5.8490 O             1 RES     
    1480 Si          15.1180    23.4980     5.5180 Si            1 RES     
    1481 OS          31.2930    29.1530    15.5050 OS            1 RES     
    1482 O           37.2250    44.6220     8.1630 O             1 RES     
    1483 Si          37.4620    29.9450     6.6480 Si            1 RES     
    1484 OS           2.4090    45.0060    14.6690 OS            1 RES     
    1485 O           28.2940     2.3970     9.6980 O             1 RES     
    1486 Si          49.9060    16.3460     2.8790 Si            1 RES     
    1487 Si          49.7400    49.0190    13.2010 Si            1 RES     
    1488 O            2.1370    21.5170    12.1680 O             1 RES     
    1489 O            2.7220    39.5190    13.6440 O             1 RES     
    1490 Si          23.4490    48.7390    13.0610 Si            1 RES     
    1491 O           43.6060    34.1830    10.4770 O             1 RES     
    1492 Si          40.0440    22.8680     2.7750 Si            1 RES     
    1493 Si          30.3540    49.4740    11.0060 Si            1 RES     
    1494 O           10.4660    28.0500     3.3230 O             1 RES     
    1495 O           43.5030    29.4090     4.0760 O             1 RES     
    1496 O           12.3350    34.3870    10.9070 O             1 RES     
    1497 Si          30.2830    35.4870    10.0540 Si            1 RES     
    1498 O            1.5180     7.7760    10.8100 O             1 RES     
    1499 O           13.9350    48.6380    12.4890 O             1 RES     
    1500 O           11.8470    15.4370     5.8870 O             1 RES     
    1501 Si          36.3330    41.9210    10.7280 Si            1 RES     
    1502 Si          35.4250    49.3560     9.7630 Si            1 RES     
    1503 O           20.1260    10.3950     6.6900 O             1 RES     
    1504 O           42.1540     3.4420    10.9540 O             1 RES     
    1505 O           48.7590     4.2680    13.4230 O             1 RES     
    1506 O           34.3070    45.7400    11.1810 O             1 RES     
    1507 Si          28.9580    19.7090    12.6810 Si            1 RES     
    1508 Si           6.1900     2.5090    13.7400 Si            1 RES     
    1509 O           13.5450     2.5430     3.3690 O             1 RES     
    1510 Si          10.8420    26.5980     2.8430 Si            1 RES     
    1511 Si          20.2770    23.7320     5.6520 Si            1 RES     
    1512 Si          14.4350    38.4700     8.2500 Si            1 RES     
    1513 O           14.3810    38.4590    11.4540 O             1 RES     
    1514 Si          40.9010     7.9910    12.3730 Si            1 RES     
    1515 Si          19.8480     9.1710    14.5010 Si            1 RES     
    1516 Si           4.0140    12.4090     2.8490 Si            1 RES     
    1517 O           46.4900     5.3760     6.6270 O             1 RES     
    1518 Si          23.8000    24.7180    13.9410 Si            1 RES     
    1519 O           43.7220     5.6280     2.8890 O             1 RES     
    1520 O            9.7740     8.0690    12.8280 O             1 RES     
    1521 O           11.2780    22.8880     6.1010 O             1 RES     
    1522 Si          34.9060    19.1140     7.6960 Si            1 RES     
    1523 Si          20.9400    21.1020    13.9370 Si            1 RES     
    1524 O           14.3030     7.0030     3.5270 O             1 RES     
    1525 O            7.6360     4.7540     3.4860 O             1 RES     
    1526 O            1.1770    36.5940     7.9670 O             1 RES     
    1527 O           11.1080    39.5610    13.4330 O             1 RES     
    1528 Si          41.8900    36.6090     5.6030 Si            1 RES     
    1529 Si           8.3270    24.6850    10.8860 Si            1 RES     
    1530 O           46.1650    30.2530    12.9010 O             1 RES     
    1531 Si          48.5580    37.0190     4.7550 Si            1 RES     
    1532 O           18.0280    24.1480     2.7820 O             1 RES     
    1533 O           38.2120    40.3700     3.1680 O             1 RES     
    1534 O           13.2290    18.9340     4.1960 O             1 RES     
    1535 Si          46.3700    21.4260    12.7990 Si            1 RES     
    1536 Si           2.5850    16.6810    13.9840 Si            1 RES     
    1537 O            1.5240    42.1600     5.3490 O             1 RES     
    1538 O           34.2080    41.4020     2.9950 O             1 RES     
    1539 O            9.9340    30.2440     7.3410 O             1 RES     
    1540 O            2.0630    15.5610     2.9380 O             1 RES     
    1541 Si          27.0240    28.3330     8.6310 Si            1 RES     
    1542 O           38.5380    40.3870    12.5310 O             1 RES     
    1543 O           35.8430     5.7330    11.5410 O             1 RES     
    1544 O           27.5350     2.5990     5.9240 O             1 RES     
    1545 Si          43.6470     6.3850     4.3100 Si            1 RES     
    1546 O           42.4490    45.0810     5.6010 O             1 RES     
    1547 OS          32.9010    10.6860    15.7000 OS            1 RES     
    1548 O           38.6840    34.5900     7.1850 O             1 RES     
    1549 Si          43.7680    26.7680     6.7440 Si            1 RES     
    1550 Si          42.4550    31.3330    13.0540 Si            1 RES     
    1551 O            4.9090    17.5310    10.4690 O             1 RES     
    1552 O           28.7750     5.2600     1.7050 O             1 RES     
    1553 Si          31.4390    21.9590     5.0050 Si            1 RES     
    1554 Si          21.4930    10.7350     7.5580 Si            1 RES     
    1555 O           13.9710     6.4620     5.8890 O             1 RES     
    1556 O           33.0330    13.1450     8.0570 O             1 RES     
    1557 Si          34.9240    33.4730     4.7240 Si            1 RES     
    1558 O           17.3600    41.1060    13.5630 O             1 RES     
    1559 O           26.3210    32.7020    13.5690 O             1 RES     
    1560 Si          31.5440    41.4570    12.4750 Si            1 RES     
    1561 O           25.4890    13.7300    12.0520 O             1 RES     
    1562 Si          41.1940    25.4280     5.6740 Si            1 RES     
    1563 OS          38.8210     8.9780    15.0080 OS            1 RES     
    1564 Si          25.0190    33.6200     4.5810 Si            1 RES     
    1565 OS          23.1240    10.3070    15.9810 OS            1 RES     
    1566 O           25.8520    37.3180     4.9610 O             1 RES     
    1567 O           33.7020     3.5210     8.8710 O             1 RES     
    1568 Si          49.5320    36.2110     7.5480 Si            1 RES     
    1569 O            7.9020    12.8950     5.8120 O             1 RES     
    1570 Si          32.6620    21.5750    11.0900 Si            1 RES     
    1571 Si          41.8410    37.7970     9.8630 Si            1 RES     
    1572 O           24.8970    38.6820     9.4090 O             1 RES     
    1573 O           19.4320    30.9940     8.6450 O             1 RES     
    1574 O           23.0340     6.4600    10.7360 O             1 RES     
    1575 Si           6.1230    21.0220     6.0700 Si            1 RES     
    1576 O           26.2580     7.8970     4.8800 O             1 RES     
    1577 O           24.7020    27.8820     4.0000 O             1 RES     
    1578 O            6.7870    43.4910    11.0880 O             1 RES     
    1579 O            4.7200    26.2960     6.7230 O             1 RES     
    1580 O           37.7030    28.5370     7.3720 O             1 RES     
    1581 O           34.9560    33.9470    11.0150 O             1 RES     
    1582 O           14.4000    21.2030    10.7780 O             1 RES     
    1583 O           17.2170    24.9120    13.6390 O             1 RES     
    1584 O            4.4340    46.6510     3.6400 O             1 RES     
    1585 O           30.7400    41.4030     3.7310 O             1 RES     
    1586 O            4.3840    13.3880    11.0640 O             1 RES     
    1587 O           22.1030    11.6210    13.7130 O             1 RES     
    1588 Si          31.4340    47.1230     9.0250 Si            1 RES     
    1589 O           36.8030    42.6740    12.0850 O             1 RES     
    1590 Si          22.1270    35.1590     9.6950 Si            1 RES     
    1591 O            3.8970     7.1550    14.0880 O             1 RES     
    1592 Si           4.3300    41.3140     8.1820 Si            1 RES     
    1593 Si          10.1830    35.9490    12.9900 Si            1 RES     
    1594 O           40.7490    28.5730    10.2950 O             1 RES     
    1595 O           32.6930    40.5850     4.9870 O             1 RES     
    1596 O           31.9860     3.9110     4.1460 O             1 RES     
    1597 O           45.5510     9.8530     8.1410 O             1 RES     
    1598 Si          30.2600    26.5190     5.2240 Si            1 RES     
    1599 Si          30.8330    16.8930    12.4020 Si            1 RES     
    1600 O           33.2690     3.5440     1.8200 O             1 RES     
    1601 Si          33.1600    28.3150     9.5480 Si            1 RES     
    1602 O           44.0770    47.9320    12.2840 O             1 RES     
    1603 O           47.5480    38.0060     5.6180 O             1 RES     
    1604 Si          37.6450    27.2860     8.3550 Si            1 RES     
    1605 O           27.5640    24.5850    13.4620 O             1 RES     
    1606 Si          17.1250    18.3300    13.4100 Si            1 RES     
    1607 O            7.1940    24.1080     3.5390 O             1 RES     
    1608 Si          16.4750     0.4530     5.0370 Si            1 RES     
    1609 O           19.0150    33.9640    12.9490 O             1 RES     
    1610 O           48.2660    28.9640    13.3060 O             1 RES     
    1611 Si          13.7360    46.8480     4.7960 Si            1 RES     
    1612 O           45.7160     3.1720     7.7260 O             1 RES     
    1613 O           47.2460    43.8840     6.4930 O             1 RES     
    1614 Si          22.0170    45.0380    14.2880 Si            1 RES     
    1615 O           33.8920     7.0090    12.1530 O             1 RES     
    1616 Si          39.0750     5.0900     3.8950 Si            1 RES     
    1617 O            7.5480    21.7370     2.2120 O             1 RES     
    1618 Si           8.7090    29.5450    12.8640 Si            1 RES     
    1619 O           23.3460    33.7330    14.3400 O             1 RES     
    1620 O           38.7150    11.9880     2.8450 O             1 RES     
    1621 O           23.8410    10.0350    13.5690 O             1 RES     
    1622 O           17.3960    45.5620     7.7220 O             1 RES     
    1623 Si          25.4570     0.0150     8.9280 Si            1 RES     
    1624 O           26.8410    31.3830    11.3970 O             1 RES     
    1625 Si           6.6870    28.7520     8.6050 Si            1 RES     
    1626 OS          43.8080    36.4830    16.0540 OS            1 RES     
    1627 O           22.9350     8.4130     3.4420 O             1 RES     
    1628 O           39.6580    23.4910     8.2180 O             1 RES     
    1629 O           40.5220    13.4140     7.5850 O             1 RES     
    1630 O           12.5910    40.7200     5.2870 O             1 RES     
    1631 O           29.9960    21.1650    13.4540 O             1 RES     
    1632 Si          41.0860    12.8460     6.2010 Si            1 RES     
    1633 Si          16.5360    42.3980     6.8450 Si            1 RES     
    1634 O            5.2850    29.5070     8.5800 O             1 RES     
    1635 Si          45.8050    26.2980     2.8180 Si            1 RES     
    1636 O           13.0470    46.5060     7.9250 O             1 RES     
    1637 O            0.7180    49.8240     8.9760 O             1 RES     
    1638 OS          36.5360    15.8240    14.3420 OS            1 RES     
    1639 O           38.6230    13.9870    13.4050 O             1 RES     
    1640 Si          11.1980    35.2150    10.2120 Si            1 RES     
    1641 O           16.1250    27.2630     7.1250 O             1 RES     
    1642 O           42.0090     8.9310     6.7160 O             1 RES     
    1643 O           29.4600     7.4260     7.0500 O             1 RES     
    1644 Si          24.4940    16.1220     5.1530 Si            1 RES     
    1645 O           14.2950    24.3120     4.4240 O             1 RES     
    1646 Si          38.8680    40.4150    14.1390 Si            1 RES     
    1647 O           29.1570    32.0700     6.3030 O             1 RES     
    1648 O           16.2070    42.0650     2.8460 O             1 RES     
    1649 OS          19.4590    10.4200    15.3960 OS            1 RES     
    1650 Si           9.1930     2.1070     6.1930 Si            1 RES     
    1651 O           22.3780    10.9030     3.1270 O             1 RES     
    1652 O           29.5450    27.8690     5.5900 O             1 RES     
    1653 Si           9.7130    35.8030     6.0890 Si            1 RES     
    1654 O           36.1380    34.2730     4.0100 O             1 RES     
    1655 O           38.8820    42.7470     2.5550 O             1 RES     
    1656 O           41.4980     4.0980     6.5750 O             1 RES     
    1657 O           44.7810    41.7280     3.7870 O             1 RES     
    1658 Si          21.5530    37.3940     5.0980 Si            1 RES     
    1659 O           15.2540    46.7190     5.0130 O             1 RES     
    1660 Si          48.3050     8.8110     5.0710 Si            1 RES     
    1661 Si          19.3380    36.4260     9.9850 Si            1 RES     
    1662 O            6.0910    41.7390    14.4270 O             1 RES     
    1663 O           47.7060     8.7760     8.5610 O             1 RES     
    1664 O           16.0610     6.3310     7.6540 O             1 RES     
    1665 O           40.2300    36.4090    13.8110 O             1 RES     
    1666 O           48.3560    10.4680     2.3570 O             1 RES     
    1667 Si           7.5970    15.8860     3.3550 Si            1 RES     
    1668 Si          33.3320    42.4600    10.1280 Si            1 RES     
    1669 Si          46.0100    36.0040     3.3990 Si            1 RES     
    1670 O           46.9380    40.5590     4.9240 O             1 RES     
    1671 Si          14.4050    18.2450     4.9420 Si            1 RES     
    1672 O           46.1040    11.4080     5.6420 O             1 RES     
    1673 O           27.3830     8.8200     6.7370 O             1 RES     
    1674 O           31.8700    15.0560     3.2500 O             1 RES     
    1675 Si          15.9070    10.0890     6.7220 Si            1 RES     
    1676 O           10.8390    15.5770    10.8400 O             1 RES     
    1677 Si           3.8790    23.8550     9.3030 Si            1 RES     
    1678 O           10.9570    21.5610     8.4690 O             1 RES     
    1679 Si           7.0870    27.4220    11.3940 Si            1 RES     
    1680 O           42.1170    20.9600    11.0440 O             1 RES     
    1681 O           14.6650    28.9330    13.6520 O             1 RES     
    1682 Si          15.6640    29.9960    13.2650 Si            1 RES     
    1683 O           41.2090     6.6220     7.2350 O             1 RES     
    1684 Si           3.2300    16.7320     5.8630 Si            1 RES     
    1685 O           25.0490    41.8660     6.4780 O             1 RES     
    1686 Si           1.2730    44.7730    10.5840 Si            1 RES     
    1687 O            2.6120    46.4420     7.0790 O             1 RES     
    1688 O           13.6390    49.8840    10.2120 O             1 RES     
    1689 O           30.6700    34.1810     9.2810 O             1 RES     
    1690 OS           3.4830     3.6420    14.6700 OS            1 RES     
    1691 Si          41.1270    42.6480     8.1450 Si            1 RES     
    1692 O           40.0150     6.7220    12.7820 O             1 RES     
    1693 O           46.5220    14.8410    13.6800 O             1 RES     
    1694 O           19.5030    37.4470    11.1780 O             1 RES     
    1695 O           40.1420    18.5980     7.4890 O             1 RES     
    1696 O            6.4810    45.2430    12.8770 O             1 RES     
    1697 O            3.6000    44.9390     4.7370 O             1 RES     
    1698 O           40.1310    32.9500    10.1810 O             1 RES     
    1699 O           44.1860    49.7900    14.2140 O             1 RES     
    1700 Si          26.6890    16.7210     3.0580 Si            1 RES     
    1701 O           23.2980    16.4810    11.5780 O             1 RES     
    1702 O            7.4210    33.3580     4.5400 O             1 RES     
    1703 Si          44.8280    48.4210    13.6520 Si            1 RES     
    1704 O           47.3600    32.4420     2.6270 O             1 RES     
    1705 O           38.3920    45.2230     3.4960 O             1 RES     
    1706 O            2.3880    18.0540     6.4230 O             1 RES     
    1707 O           25.3700    36.4550     2.4690 O             1 RES     
    1708 OS          22.7450    30.9570    14.5870 OS            1 RES     
    1709 O           33.4470    13.1420     3.1830 O             1 RES     
    1710 O           24.0410    23.1650    13.5520 O             1 RES     
    1711 OS          46.7590    44.2960    14.1190 OS            1 RES     
    1712 O           36.7380    34.8560     9.1230 O             1 RES     
    1713 O           43.6660    35.3340     8.4330 O             1 RES     
    1714 O           39.8860     2.2040    10.2160 O             1 RES     
    1715 O           49.6020    12.7850    13.2680 O             1 RES     
    1716 O           33.9400    24.2910     2.7330 O             1 RES     
    1717 O           11.1720    18.9820     5.3790 O             1 RES     
    1718 O           14.0480     9.3350     3.0620 O             1 RES     
    1719 O           42.7380    34.8950     2.7400 O             1 RES     
    1720 O           35.8400    18.1980    13.9900 O             1 RES     
    1721 O           45.4570    30.3800     2.5570 O             1 RES     
    1722 O           34.2480    35.0790     8.7640 O             1 RES     
    1723 OS           3.5890    41.3540    15.1300 OS            1 RES     
    1724 O           14.3800    26.3200    10.8220 O             1 RES     
    1725 OS          48.5540    26.5690    14.4960 OS            1 RES     
    1726 Si           5.3480    49.4170    12.7330 Si            1 RES     
    1727 O           34.2900     4.8140    13.7120 O             1 RES     
    1728 O           41.5300    11.3990     6.3670 O             1 RES     
    1729 O           46.0850    35.4200     1.9540 O             1 RES     
    1730 Si          11.4050    22.6560     4.4670 Si            1 RES     
    1731 OS          38.6380    32.5650    14.3420 OS            1 RES     
    1732 OS          40.7220    14.0150    14.4760 OS            1 RES     
    1733 Si           5.4440    46.3220    12.6150 Si            1 RES     
    1734 O           47.9650     3.8760     8.0230 O             1 RES     
    1735 O           22.6100    24.2770     9.1200 O             1 RES     
    1736 O            8.7410     3.2920     5.2770 O             1 RES     
    1737 O           43.1120    13.3500    10.8740 O             1 RES     
    1738 O           40.3440    48.4660     7.4730 O             1 RES     
    1739 O            3.4810     4.3130    11.9250 O             1 RES     
    1740 O           15.4450    37.0720    13.3770 O             1 RES     
    1741 O           30.5520    32.6320    11.0970 O             1 RES     
    1742 O           14.9040    13.0700     7.7000 O             1 RES     
    1743 Si          43.4640    34.5120     4.1050 Si            1 RES     
    1744 O           37.2750    41.3190     6.3480 O             1 RES     
    1745 O           16.5790     8.1120     3.7590 O             1 RES     
    1746 O           44.9030    17.5790     9.8250 O             1 RES     
    1747 O           42.4170    23.6620    11.1840 O             1 RES     
    1748 Si          11.8210    19.6120     4.0960 Si            1 RES     
    1749 O            4.2290     4.2180     9.5200 O             1 RES     
    1750 O           11.9240     3.5670     7.9060 O             1 RES     
    1751 Si          23.2640    28.3340     4.5650 Si            1 RES     
    1752 Si          10.6550    15.6260     6.9070 Si            1 RES     
    1753 Si          16.6240    47.4700     4.8540 Si            1 RES     
    1754 O           42.4230    43.5150    11.6360 O             1 RES     
    1755 O           44.6300    13.0840     4.7050 O             1 RES     
    1756 O           24.8870    23.7760     8.7800 O             1 RES     
    1757 Si          44.1340    14.4970    10.5390 Si            1 RES     
    1758 O            1.7890    11.3740     9.7400 O             1 RES     
    1759 Si          36.3550    48.1240     7.1680 Si            1 RES     
    1760 O           10.2310    49.0210     4.5630 O             1 RES     
    1761 O           28.3610    24.1750     9.0730 O             1 RES     
    1762 OS           8.0270    42.6550    15.9740 OS            1 RES     
    1763 O           20.6590    43.6390     4.2780 O             1 RES     
    1764 Si          19.3750    41.1540     7.3020 Si            1 RES     
    1765 O           30.9560    11.5940     8.6360 O             1 RES     
    1766 O           18.8340     9.1030    13.2000 O             1 RES     
    1767 O           18.5960    17.9340    13.0090 O             1 RES     
    1768 O           46.4730     1.5150     3.5410 O             1 RES     
    1769 Si          18.1270    13.5640    13.2330 Si            1 RES     
    1770 O           12.2390    25.8070     3.0760 O             1 RES     
    1771 O            7.1170    49.6020     8.2970 O             1 RES     
    1772 OS          11.0990    15.4880    15.8520 OS            1 RES     
    1773 Si          47.6450    44.0410    12.8520 Si            1 RES     
    1774 O            7.2630    40.2660     5.4760 O             1 RES     
    1775 Si           5.9150    39.6130     6.0160 Si            1 RES     
    1776 O            3.6420    48.2090     1.7190 O             1 RES     
    1777 Si           9.3260    30.2780     8.7720 Si            1 RES     
    1778 O           21.8550    12.2470     7.6560 O             1 RES     
    1779 Si          32.0220    45.5090     3.4310 Si            1 RES     
    1780 Si          26.3280    36.2830     3.8650 Si            1 RES     
    1781 Si          29.2960    49.2110     4.6370 Si            1 RES     
    1782 Si           9.8470    49.8200    11.0250 Si            1 RES     
    1783 Si           9.5920     8.9400    14.1330 Si            1 RES     
    1784 O           23.2350    37.5940     5.5630 O             1 RES     
    1785 O            4.4610     4.4630     6.6550 O             1 RES     
    1786 O           37.6840     4.5540     4.2990 O             1 RES     
    1787 O            8.1540    43.7040     6.2390 O             1 RES     
    1788 O           16.5850     3.8740     7.1990 O             1 RES     
    1789 Si          43.4070    14.0150     4.5790 Si            1 RES     
    1790 O           29.2980    38.8270     7.6790 O             1 RES     
    1791 O           29.3870    21.7350     9.2020 O             1 RES     
    1792 Si          19.1950    49.8120     3.6240 Si            1 RES     
    1793 O           38.6720    38.0910    11.0390 O             1 RES     
    1794 Si          37.7770    35.5230     8.0530 Si            1 RES     
    1795 O            0.8420    23.7000    11.6950 O             1 RES     
    1796 Si          45.3090    46.5390     8.6930 Si            1 RES     
    1797 O           40.1670    32.8790     5.9980 O             1 RES     
    1798 O           49.4920    12.2080     4.3130 O             1 RES     
    1799 Si          43.2470    18.1450     6.8110 Si            1 RES     
    1800 O            1.2610    45.9670     4.7330 O             1 RES     
    1801 O           20.5560     6.5140    11.2540 O             1 RES     
    1802 Si          46.4700    21.9070     5.5860 Si            1 RES     
    1803 O           33.7270     4.7470    11.2180 O             1 RES     
    1804 O           48.7680    39.6940    10.5490 O             1 RES     
    1805 Si           3.4020     1.0840     6.7640 Si            1 RES     
    1806 O           21.3330     1.8710    11.3530 O             1 RES     
    1807 O           35.5060    11.1090     6.4490 O             1 RES     
    1808 O           26.7580     4.1720     8.6430 O             1 RES     
    1809 O           44.5140    28.1680    12.7980 O             1 RES     
    1810 Si           5.8150    23.1590    13.7230 Si            1 RES     
    1811 O           37.1250     4.6340     6.7400 O             1 RES     
    1812 Si          42.0090     8.7670     3.2600 Si            1 RES     
    1813 Si          46.1000    12.5440     4.5270 Si            1 RES     
    1814 O           49.5030    40.8540    12.6370 O             1 RES     
    1815 O           11.7300    11.3630    10.8470 O             1 RES     
    1816 Si          10.5060     3.9990     8.3070 Si            1 RES     
    1817 O           26.4340    42.8610    11.3620 O             1 RES     
    1818 Si          45.5280    18.4290    12.9920 Si            1 RES     
    1819 O           10.2690    20.2770    12.7150 O             1 RES     
    1820 O            4.0880     6.5780     5.0410 O             1 RES     
    1821 Si           4.7960    45.1350     3.8250 Si            1 RES     
    1822 Si          17.2500    36.7620     5.3500 Si            1 RES     
    1823 O           22.6580    35.0170     8.1920 O             1 RES     
    1824 O            4.7760    11.3850     3.7570 O             1 RES     
    1825 Si           2.1730    30.1660    10.6390 Si            1 RES     
    1826 O           29.6660     9.5910    12.2180 O             1 RES     
    1827 O            3.1690    11.5260     1.8630 O             1 RES     
    1828 Si           1.5830    19.4170     6.7290 Si            1 RES     
    1829 Si           4.1910    30.4610     4.9740 Si            1 RES     
    1830 O           18.7420    19.2920     3.6040 O             1 RES     
    1831 O           29.6860    44.8840    11.6080 O             1 RES     
    1832 Si          21.1900    42.2330     4.8640 Si            1 RES     
    1833 O           30.7800    20.5740     4.9990 O             1 RES     
    1834 O           19.1700    19.3410     6.1340 O             1 RES     
    1835 Si          21.9210     5.8130    11.6850 Si            1 RES     
    1836 O           30.8090    16.9810     1.4340 O             1 RES     
    1837 O           19.2280    34.6030     2.8800 O             1 RES     
    1838 Si           4.1090     5.0000     5.1770 Si            1 RES     
    1839 O            6.3600    18.8940     8.8740 O             1 RES     
    1840 O            6.2940     0.6990     3.4020 O             1 RES     
    1841 O           15.1280     3.2530    11.2180 O             1 RES     
    1842 Si          24.5940    16.9940    10.8350 Si            1 RES     
    1843 Si          12.2190    47.6710     7.2280 Si            1 RES     
    1844 Si          49.2660    27.9520    14.1410 Si            1 RES     
    1845 O           37.6340    43.1750     4.6860 O             1 RES     
    1846 O           40.8040     9.0420    13.7160 O             1 RES     
    1847 Si          27.3070    45.2360     8.2250 Si            1 RES     
    1848 O           33.9980    22.9060     7.6760 O             1 RES     
    1849 O            7.2550    30.0260    13.2260 O             1 RES     
    1850 OS          45.0770    29.4240    15.0810 OS            1 RES     
    1851 O           45.1190    37.2770     3.0810 O             1 RES     
    1852 O            6.8140    47.4990     9.5180 O             1 RES     
    1853 O           14.2680    43.1000     4.5660 O             1 RES     
    1854 O           41.9410    38.7310    11.1050 O             1 RES     
    1855 O            5.3760    40.2880     7.4140 O             1 RES     
    1856 O           40.1690    43.8500     4.6990 O             1 RES     
    1857 O           27.7100    40.7150     6.5120 O             1 RES     
    1858 O           40.9140    41.0570     8.2180 O             1 RES     
    1859 OS          34.1110    39.3100    14.9850 OS            1 RES     
    1860 O           30.0460    40.2740     5.7160 O             1 RES     
    1861 O           39.6660    27.1110    12.0460 O             1 RES     
    1862 O           17.3190    47.0070     3.5200 O             1 RES     
    1863 Si          32.9580     4.0070    10.1090 Si            1 RES     
    1864 OS          10.9230     3.7840    14.3840 OS            1 RES     
    1865 Si          34.8320    34.0840    12.5900 Si            1 RES     
    1866 O            7.6280    43.2180    13.5850 O             1 RES     
    1867 Si          47.7210    26.6370     7.6180 Si            1 RES     
    1868 O           30.9160    26.5840     3.7620 O             1 RES     
    1869 O           23.9220    42.3280    12.3240 O             1 RES     
    1870 O           25.8880    40.5100    13.6960 O             1 RES     
    1871 O           36.9150    15.8830     8.6820 O             1 RES     
    1872 OS           6.4700    14.0980    14.5600 OS            1 RES     
    1873 O           21.1230    47.8380     9.4230 O             1 RES     
    1874 O           21.3940    24.2170     4.6260 O             1 RES     
    1875 O           38.1040    25.3190    12.6240 O             1 RES     
    1876 Si          32.5640    11.8050     8.6730 Si            1 RES     
    1877 O           33.7820    18.0900     7.4940 O             1 RES     
    1878 O            9.2800    39.5730    11.9060 O             1 RES     
    1879 O            1.9720     1.2120     6.1930 O             1 RES     
    1880 O           46.1200    47.9080     8.9550 O             1 RES     
    1881 O           15.0400    45.0910     8.8960 O             1 RES     
    1882 O            5.1570    33.7200     3.2020 O             1 RES     
    1883 Si          43.0790    47.3120    11.1950 Si            1 RES     
    1884 OS          38.3240     2.4550    14.5480 OS            1 RES     
    1885 O            9.7870    41.1050     4.7360 O             1 RES     
    1886 O            6.1870    10.7460     5.5900 O             1 RES     
    1887 O           34.0590    49.7060     8.3830 O             1 RES     
    1888 O           46.9490    42.9200     4.2110 O             1 RES     
    1889 O           40.5380    39.4770     3.5280 O             1 RES     
    1890 O           25.0980    48.5330     8.5770 O             1 RES     
    1891 Si          33.8420    45.4100     9.7360 Si            1 RES     
    1892 O            1.0700    29.6330     2.7850 O             1 RES     
    1893 O           31.7480    46.3360     4.7500 O             1 RES     
    1894 O           46.7180    43.3970    11.7750 O             1 RES     
    1895 O           45.9950    25.4950     4.1030 O             1 RES     
    1896 Si          24.4620    20.2280     4.2260 Si            1 RES     
    1897 O            1.2180    40.0580    10.7650 O             1 RES     
    1898 O           49.7400    19.9800    10.4620 O             1 RES     
    1899 O           36.5850     7.6310    10.1330 O             1 RES     
    1900 O           32.3760    49.8430     3.1810 O             1 RES     
    1901 OS          28.6740    10.7080    14.1490 OS            1 RES     
    1902 O           29.5430    49.3210    12.4220 O             1 RES     
    1903 Si          38.2170    48.4220    11.3390 Si            1 RES     
    1904 O           27.3500    36.5040    12.2680 O             1 RES     
    1905 O           21.5430    31.5880     9.9880 O             1 RES     
    1906 O           34.2360    27.1980    10.1070 O             1 RES     
    1907 Si          28.9930     5.7800     3.1930 Si            1 RES     
    1908 O           16.7080    12.7920     9.7260 O             1 RES     
    1909 Si          30.0820    44.3490    13.0340 Si            1 RES     
    1910 O            8.3120    28.2320    12.0050 O             1 RES     
    1911 Si          17.5100    25.8340    12.3960 Si            1 RES     
    1912 O           13.1120    45.4360     5.0930 O             1 RES     
    1913 O            8.6580    38.8890     7.8230 O             1 RES     
    1914 O           25.4570    30.2240     5.8030 O             1 RES     
    1915 O           15.4610    30.9980    12.0200 O             1 RES     
    1916 O           20.9830    17.0100    12.4260 O             1 RES     
    1917 O            2.5790    23.0990     5.9300 O             1 RES     
    1918 Si          23.6140    20.2550     7.2040 Si            1 RES     
    1919 O           12.8580    28.5260    10.3000 O             1 RES     
    1920 Si          49.4750    31.2930     5.8120 Si            1 RES     
    1921 O           30.2560     7.0160    13.1400 O             1 RES     
    1922 O            1.0510    42.4950     2.7780 O             1 RES     
    1923 O           47.2880    39.8280     7.4040 O             1 RES     
    1924 Si          18.5590    46.0310     6.8330 Si            1 RES     
    1925 Si          34.5940    12.1700     2.8700 Si            1 RES     
    1926 O            4.8720     2.7370    12.9050 O             1 RES     
    1927 Si          22.8780    32.3050    10.6540 Si            1 RES     
    1928 O           40.5280    15.8970     7.9670 O             1 RES     
    1929 O           49.8640    21.4210    12.6100 O             1 RES     
    1930 Si          42.2390     3.0160     7.4680 Si            1 RES     
    1931 O            3.7080    32.8340    13.4430 O             1 RES     
    1932 O            2.5300    34.7780    12.6110 O             1 RES     
    1933 Si           2.4450     7.5800    14.4700 Si            1 RES     
    1934 O           49.6160    16.5430    11.2260 O             1 RES     
    1935 Si          27.6710    25.6370    12.2540 Si            1 RES     
    1936 O            9.4760    25.8230     3.2250 O             1 RES     
    1937 Si          13.1140    47.5690    13.2110 Si            1 RES     
    1938 O           16.1200    18.1080    12.2320 O             1 RES     
    1939 OS          29.6160    49.4550    15.2350 OS            1 RES     
    1940 Si           2.5000    36.8800     8.8330 Si            1 RES     
    1941 O           10.4580    19.5140    10.2270 O             1 RES     
    1942 O           31.5910     0.4320    11.3760 O             1 RES     
    1943 O           23.7620    20.4510     5.6460 O             1 RES     
    1944 O            6.4440    28.1370     2.6900 O             1 RES     
    1945 Si          32.9600    16.8100     7.8490 Si            1 RES     
    1946 O           45.8420    12.2230     2.9200 O             1 RES     
    1947 Si          27.7260    28.2960    13.6810 Si            1 RES     
    1948 Si          32.2490    34.8590     5.3880 Si            1 RES     
    1949 O           43.5730    19.3770     5.9410 O             1 RES     
    1950 O           41.4800    11.2340    10.4330 O             1 RES     
    1951 O           27.1300    19.9590    11.9050 O             1 RES     
    1952 Si           6.3650    38.1370    13.4510 Si            1 RES     
    1953 O           15.5340    25.4820     8.9350 O             1 RES     
    1954 O           44.5210    17.3100     6.5560 O             1 RES     
    1955 O           43.6050    30.4300    13.6700 O             1 RES     
    1956 O           13.6740    44.1950     7.0730 O             1 RES     
    1957 O           14.3730    14.0060    12.1490 O             1 RES     
    1958 O           15.2320    24.6720     6.5390 O             1 RES     
    1959 O           10.0290     5.5380     8.3100 O             1 RES     
    1960 Si          25.5300    22.6310     7.8570 Si            1 RES     
    1961 O            2.1790    47.9090     3.7720 O             1 RES     
    1962 Si          28.9950    23.7520     5.4270 Si            1 RES     
    1963 Si           3.1650    10.6790    10.1300 Si            1 RES     
    1964 O           16.2890    28.8230     5.1010 O             1 RES     
    1965 O           17.3520    32.1840     7.5460 O             1 RES     
    1966 Si          43.9500    35.9760    14.5880 Si            1 RES     
    1967 O           34.8070    39.4040     4.0380 O             1 RES     
    1968 Si          36.5260    42.5080     5.6500 Si            1 RES     
    1969 O           19.9540     6.7290     6.2850 O             1 RES     
    1970 O            4.6190    12.9200    13.5930 O             1 RES     
    1971 O            2.3390     4.1420     7.6210 O             1 RES     
    1972 O           41.9660    30.8780     9.8350 O             1 RES     
    1973 Si          35.8660    49.2400     2.9200 Si            1 RES     
    1974 O            8.7220    18.7280     5.6150 O             1 RES     
    1975 O           14.6250     3.0450    13.8430 O             1 RES     
    1976 Si          35.9630    37.4350     6.4760 Si            1 RES     
    1977 Si           5.4570    15.2780     7.5350 Si            1 RES     
    1978 O           27.9400    14.5790    12.6080 O             1 RES     
    1979 OS          26.5330     4.8940    15.5000 OS            1 RES     
    1980 Si          43.3240    41.8310     3.2860 Si            1 RES     
    1981 Si          43.4030    46.2690     6.1900 Si            1 RES     
    1982 Si          29.6460    11.3040     7.7860 Si            1 RES     
    1983 O           36.5260    14.3320    10.5830 O             1 RES     
    1984 O           36.0060    43.7990     6.4990 O             1 RES     
    1985 Si           8.0120    14.4310     6.0600 Si            1 RES     
    1986 Si           8.8960    23.5080    13.6690 Si            1 RES     
    1987 O           38.2490    18.3300     8.8490 O             1 RES     
    1988 O           43.7310    19.8350     3.3930 O             1 RES     
    1989 O           27.6680    35.9060     3.0870 O             1 RES     
    1990 O            0.4900    43.5340    10.0180 O             1 RES     
    1991 O           13.6420    35.4190     6.9260 O             1 RES     
    1992 O           12.7540    11.4440     2.6230 O             1 RES     
    1993 Si          12.9910    27.1330    10.9580 Si            1 RES     
    1994 Si          23.8630    45.8620    11.9930 Si            1 RES     
    1995 Si          25.8870     0.5160    13.8480 Si            1 RES     
    1996 O           22.2970    48.3590     5.3120 O             1 RES     
    1997 Si          25.9610     5.2320     7.8690 Si            1 RES     
    1998 O           24.2940     1.8930     2.7680 O             1 RES     
    1999 O           16.4760    37.7040     4.3180 O             1 RES     
    2000 O           22.5200    49.9330    12.4180 O             1 RES     
    2001 Si          37.4340    32.5980    13.1870 Si            1 RES     
    2002 O           38.9960     6.4630     3.1540 O             1 RES     
    2003 Si          10.7150    31.6810    12.0640 Si            1 RES     
    2004 O           34.5510    35.6090    12.8760 O             1 RES     
    2005 Si          40.2900    17.2020     6.6710 Si            1 RES     
    2006 O           44.9450    25.3230     1.8730 O             1 RES     
    2007 O           25.4540    16.6890     4.0590 O             1 RES     
    2008 O           21.2320    41.1290     3.7910 O             1 RES     
    2009 O           47.9910    20.1320     7.5240 O             1 RES     
    2010 O           28.9260     1.4310     7.6320 O             1 RES     
    2011 Si          24.1400     6.9550     9.6920 Si            1 RES     
    2012 Si          10.0460    45.8610    12.3140 Si            1 RES     
    2013 O           19.5920    46.6460     7.8140 O             1 RES     
    2014 O           49.2820    13.9790     6.4470 O             1 RES     
    2015 Si          32.7610    30.8370     8.0090 Si            1 RES     
    2016 O           36.0280    19.1090    11.6440 O             1 RES     
    2017 O           25.9280    36.2850     9.9660 O             1 RES     
    2018 O           16.9410     1.5030    13.9450 O             1 RES     
    2019 Si           8.0890     9.1650     3.4690 Si            1 RES     
    2020 O            7.4840    43.0870     8.6110 O             1 RES     
    2021 Si          20.1150    33.9210    14.1370 Si            1 RES     
    2022 O            1.1320    27.7500     4.4110 O             1 RES     
    2023 Si          41.8280    48.1740     7.9800 Si            1 RES     
    2024 Si          38.2600     9.3290     6.6120 Si            1 RES     
    2025 O           40.4440    45.0910    11.7210 O             1 RES     
    2026 O           22.1720    28.9880    12.0870 O             1 RES     
    2027 O           22.5850    42.3680     5.5940 O             1 RES     
    2028 O            6.3640     0.9860    13.3560 O             1 RES     
    2029 O           21.1010    18.6210     4.3820 O             1 RES     
    2030 OS          40.5240    10.4340    15.8200 OS            1 RES     
    2031 O           28.6020    25.5380    10.9880 O             1 RES     
    2032 Si          45.1290    16.0420     5.8950 Si            1 RES     
    2033 O           48.0560    45.4530    12.2910 O             1 RES     
    2034 O           14.1680    24.4350     1.8690 O             1 RES     
    2035 O           13.8490    13.9900     5.4690 O             1 RES     
    2036 Si          41.6930    22.5180     5.2840 Si            1 RES     
    2037 O            7.7250    10.1780     9.7690 O             1 RES     
    2038 O           15.1780    41.4640     6.7210 O             1 RES     
    2039 O            0.5540    24.3760     6.7230 O             1 RES     
    2040 Si          38.2510    39.6490    11.1770 Si            1 RES     
    2041 Si          16.6180    37.7820    14.0810 Si            1 RES     
    2042 Si           2.9550    34.2100    14.0020 Si            1 RES     
    2043 O           13.2470     4.9020     3.6700 O             1 RES     
    2044 OS          11.5390    20.6390    15.1320 OS            1 RES     
    2045 Si          17.6370    21.3620    13.0510 Si            1 RES     
    2046 O           37.0490     8.3670     5.3170 O             1 RES     
    2047 O           18.5340     9.5700     4.7320 O             1 RES     
    2048 O           28.1010     7.5450     8.9600 O             1 RES     
    2049 O            4.4450    49.1510     3.9220 O             1 RES     
    2050 Si          34.1500     0.2340     6.9910 Si            1 RES     
    2051 O           28.9690     0.5530     5.4100 O             1 RES     
    2052 O           25.2910    45.2430    11.4690 O             1 RES     
    2053 O           48.5810     0.0460    12.8100 O             1 RES     
    2054 O            9.1010    41.7060     7.7430 O             1 RES     
    2055 O           23.3950    15.5370    13.9790 O             1 RES     
    2056 OS          46.7240    33.2900    14.4010 OS            1 RES     
    2057 O           38.2860    19.0310    13.0940 O             1 RES     
    2058 O           48.7460    16.5420    13.5350 O             1 RES     
    2059 O            2.8580    31.2520    11.5010 O             1 RES     
    2060 O           28.9490    32.9340     4.0500 O             1 RES     
    2061 Si          46.1820    13.6870    12.6920 Si            1 RES     
    2062 O           22.4060    27.0210     4.5720 O             1 RES     
    2063 O           32.4200    22.4380     3.8130 O             1 RES     
    2064 Si          19.3320    37.9810     7.2560 Si            1 RES     
    2065 O           13.0730    33.9140    13.3170 O             1 RES     
    2066 O            1.1850    49.5760    12.8470 O             1 RES     
    2067 Si          23.2730    36.9670    11.8210 Si            1 RES     
    2068 OS           2.9850    17.9980    14.8750 OS            1 RES     
    2069 O           25.0460    37.2640     7.3890 O             1 RES     
    2070 O           14.9480    19.2350     6.0250 O             1 RES     
    2071 Si          47.2880    48.5670     9.7450 Si            1 RES     
    2072 O            4.8430    38.0640    13.1040 O             1 RES     
    2073 O           29.7890     4.3610    13.8270 O             1 RES     
    2074 Si          39.1580     5.4970    12.3780 Si            1 RES     
    2075 O            6.1050    35.7080     4.4190 O             1 RES     
    2076 O           36.5980     2.3970    12.3880 O             1 RES     
    2077 Si          15.4760    20.6070     6.7620 Si            1 RES     
    2078 O           14.5900    33.3570    11.3350 O             1 RES     
    2079 Si          17.0470     0.9500    12.4370 Si            1 RES     
    2080 O            2.3170     7.2640     8.3850 O             1 RES     
    2081 O            9.0200    36.3940     7.3610 O             1 RES     
    2082 O            0.4130    36.1710    11.9020 O             1 RES     
    2083 O            7.3160    17.2230    10.7510 O             1 RES     
    2084 OS          41.2620    38.5490    15.0810 OS            1 RES     
    2085 O           48.3180    49.4250     8.8890 O             1 RES     
    2086 Si          46.3050     7.2390    11.5810 Si            1 RES     
    2087 Si           0.9870    22.4530    12.7220 Si            1 RES     
    2088 O           12.6550    43.2920    11.9990 O             1 RES     
    2089 O            8.1300     3.5870    11.1090 O             1 RES     
    2090 O           43.5260     5.4500    13.6310 O             1 RES     
    2091 O           12.0960     9.1050     6.9030 O             1 RES     
    2092 Si          34.7290    19.2200    10.7460 Si            1 RES     
    2093 O            9.8690    36.6850     4.6570 O             1 RES     
    2094 O            6.2950    49.5440    10.8970 O             1 RES     
    2095 O           41.9290    17.3280     6.3350 O             1 RES     
    2096 O            9.4350    46.6280     4.5100 O             1 RES     
    2097 O           40.4240     8.4670     2.8820 O             1 RES     
    2098 O           16.1310    39.2250    14.1870 O             1 RES     
    2099 Si          39.6220    19.8540    13.4610 Si            1 RES     
    2100 Si          26.2590     7.5200    11.9100 Si            1 RES     
    2101 O           32.8230    46.4750     9.3520 O             1 RES     
    2102 Si           6.6160    22.6860     3.5980 Si            1 RES     
    2103 O           27.6590    26.8770     8.9330 O             1 RES     
    2104 Si          15.6720    43.1520     3.8470 Si            1 RES     
    2105 O           44.8030    25.8370     6.1180 O             1 RES     
    2106 O           12.3800     0.3960     4.1410 O             1 RES     
@<TRIPOS>BOND
       1     1207     1521 1
       2      840     1967 1
       3     1449     1480 1
       4      188     2057 1
       5      623      887 1
       6      117      359 1
       7      898     1358 1
       8      538     1319 1
       9     1023     1764 1
      10     1219     1308 1
      11       16      839 1
      12      303     1453 1
      13       72      125 1
      14      371     2003 1
      15      780     1559 1
      16      914     1513 1
      17      599     1069 1
      18      795      932 1
      19      193     1977 1
      20      786      866 1
      21      616     1038 1
      22      798     1783 1
      23      532     1650 1
      24     1122     1540 1
      25     1602     1883 1
      26      643      657 1
      27     1058     1928 1
      28      319      959 1
      29      647     1796 1
      30      850      892 1
      31      181     1450 1
      32      594     1737 1
      33       72      219 1
      34     1066     1806 1
      35     1805     1879 1
      36      684     1325 1
      37      945     1466 1
      38      510      519 1
      39      927     1416 1
      40      797     1823 1
      41      286     1918 1
      42      636     1577 1
      43     1470     1730 1
      44      662     1675 1
      45     1223     1328 1
      46      488     1829 1
      47      208     1009 1
      48      326      456 1
      49      327      352 1
      50       27     1280 1
      51      217     1547 1
      52       49     1802 1
      53      692     1829 1
      54     1124     1608 1
      55      704     2098 1
      56      741     1237 1
      57     1795     2087 1
      58     1066     1314 1
      59     1022     1214 1
      60      395     1961 1
      61      280      700 1
      62      757     1087 1
      63      401     1906 1
      64      467     1881 1
      65      248     1658 1
      66     1049     1596 1
      67      542     1458 1
      68      733     1478 1
      69     1796     1880 1
      70     1968     1984 1
      71      816      856 1
      72      162      594 1
      73      466      678 1
      74     1210     1409 1
      75      173     1102 1
      76     1569     1985 1
      77      727     1537 1
      78      979     1618 1
      79      847     1357 1
      80       42     1549 1
      81      923     1528 1
      82     1896     1943 1
      83      930     1684 1
      84      659      679 1
      85      812     1123 1
      86      157      394 1
      87      495      582 1
      88       46      864 1
      89      283      705 1
      90     1137     1159 1
      91       54      556 1
      92       98      471 1
      93     1260     1489 1
      94      390      830 1
      95       64      485 1
      96      359     1628 1
      97     1541     2103 1
      98      483     1606 1
      99     1740     2041 1
     100     1171     1884 1
     101      724     1497 1
     102      180     1844 1
     103      794     1272 1
     104      907     2011 1
     105      370      659 1
     106     1700     2007 1
     107     1118     1993 1
     108      654     1472 1
     109      548      618 1
     110      519     1830 1
     111      861     1810 1
     112      518     1152 1
     113      864     1378 1
     114     1219     1652 1
     115      125     1416 1
     116     1372     1952 1
     117      622     1916 1
     118      183      576 1
     119      405     1860 1
     120      918     1712 1
     121     1602     1703 1
     122     1237     1245 1
     123     1610     1844 1
     124      817     1697 1
     125       85     2075 1
     126       47     1535 1
     127      142     1918 1
     128      346     1418 1
     129       20      178 1
     130      167     1303 1
     131     1384     1417 1
     132      434     1040 1
     133      143     1667 1
     134      475     1207 1
     135      159     1499 1
     136      668     1864 1
     137      775     1865 1
     138      286     1423 1
     139      522     1128 1
     140      233     1703 1
     141      931     1330 1
     142      403     1105 1
     143      249      501 1
     144      304     1028 1
     145      846     2041 1
     146     1130     1575 1
     147     1336     1417 1
     148     1227     2014 1
     149     1252     1568 1
     150      542     1995 1
     151      263     1393 1
     152      574      947 1
     153       81     1452 1
     154      924     2083 1
     155     1025     1741 1
     156     1097     1503 1
     157       24     1558 1
     158       99      439 1
     159      238     1055 1
     160      669     1673 1
     161      789      912 1
     162     1309     1942 1
     163      963     2033 1
     164     1500     1752 1
     165     1531     1603 1
     166      587     1263 1
     167      461     1001 1
     168     1016     1274 1
     169      690      885 1
     170      361     1089 1
     171      490     1395 1
     172     1262     1679 1
     173      314      972 1
     174      965     1807 1
     175       10      362 1
     176     1050     1593 1
     177      388      824 1
     178       57      549 1
     179      131      627 1
     180     1428     1594 1
     181      694     1405 1
     182     1171     1438 1
     183     1478     1628 1
     184      982     1535 1
     185      660     1315 1
     186     1101     1925 1
     187       24      240 1
     188       58     2041 1
     189      225     1507 1
     190      150      407 1
     191      427      876 1
     192       68     1416 1
     193     1088     1599 1
     194      903     1158 1
     195      149     1685 1
     196      742     1588 1
     197      159     1688 1
     198      277     1881 1
     199     1220     1826 1
     200     1178     2099 1
     201      562     2045 1
     202     1026     1907 1
     203     1361     1370 1
     204     1192     1929 1
     205      617     1604 1
     206      234      484 1
     207      512     1139 1
     208      161     1242 1
     209      772     1338 1
     210      144     1355 1
     211       22      484 1
     212     1653     2081 1
     213      311     1089 1
     214     1007     1665 1
     215      432     1361 1
     216      241      934 1
     217      404     1350 1
     218      132     1866 1
     219     1390     2086 1
     220      364      890 1
     221      158     1376 1
     222     1199     1674 1
     223     1617     2102 1
     224      544      719 1
     225       70      566 1
     226      548     1288 1
     227      336     1856 1
     228      920     1646 1
     229     1825     2059 1
     230     1235     1633 1
     231     1425     1804 1
     232     1051     1775 1
     233     1339     1504 1
     234       94      646 1
     235      560     1787 1
     236      676     1100 1
     237      110      499 1
     238      363      626 1
     239      126      666 1
     240     1197     1842 1
     241      335     1555 1
     242      932     1586 1
     243      558     1761 1
     244      465     1042 1
     245      926     1473 1
     246       92     1668 1
     247      285      792 1
     248      324      442 1
     249     1763     1832 1
     250     1534     1671 1
     251     1338     1495 1
     252      602      999 1
     253      827     1791 1
     254     1493     1942 1
     255     1020     1746 1
     256      457     1842 1
     257     1514     1846 1
     258      579     1619 1
     259      584      919 1
     260      179     1492 1
     261      210     1907 1
     262      579      634 1
     263      963      976 1
     264      280      571 1
     265     1021     1658 1
     266      712     1782 1
     267      466     1057 1
     268      652     1777 1
     269      733     2036 1
     270     1709     1925 1
     271       12     2100 1
     272      608     1000 1
     273      305      627 1
     274     2005     2095 1
     275     1397     1644 1
     276     1097     1331 1
     277      770     1474 1
     278       48     1266 1
     279     1335     1380 1
     280      976     1487 1
     281      483     2045 1
     282      132      917 1
     283      882     1802 1
     284      635      928 1
     285     1115     2025 1
     286       79     1358 1
     287      509     1054 1
     288      655     1064 1
     289     1379     1973 1
     290      725     1587 1
     291      844     1680 1
     292      831      897 1
     293     1516     1824 1
     294     1151     1442 1
     295     1402     1873 1
     296      835     1937 1
     297        5      524 1
     298     1283     1590 1
     299     1487     2053 1
     300      832     1554 1
     301      312      686 1
     302      435      485 1
     303     1467     1837 1
     304      170     1780 1
     305      313      328 1
     306      193     1684 1
     307      648      972 1
     308     1440     1666 1
     309      111     1084 1
     310      693      925 1
     311     1200     1623 1
     312      622     1701 1
     313      701     1127 1
     314     1400     1533 1
     315      381     1599 1
     316      993     1964 1
     317      342     2056 1
     318      147      993 1
     319     1750     1816 1
     320      527     1630 1
     321      277     1636 1
     322     1488     2087 1
     323       63     1315 1
     324     1157     1857 1
     325      257      709 1
     326      490     1160 1
     327       15      728 1
     328      262      379 1
     329        2      847 1
     330      503     1557 1
     331      256      968 1
     332     1502     1887 1
     333      685     1297 1
     334     1755     1813 1
     335      309     1742 1
     336     1511     1874 1
     337      432     1514 1
     338      952     1463 1
     339      759     1530 1
     340      464     1921 1
     341      771      840 1
     342      114     1389 1
     343      357     1322 1
     344     1656     1930 1
     345      875     1276 1
     346      374      382 1
     347      172     1048 1
     348       85      610 1
     349      774     1025 1
     350      758     1244 1
     351      205      652 1
     352     1177     1804 1
     353      148     1076 1
     354      104      122 1
     355      192      669 1
     356      138     1093 1
     357     1261     2045 1
     358     1032     1606 1
     359       87     1204 1
     360      292      291 1
     361      228     1576 1
     362     1364     2040 1
     363     1546     1981 1
     364      255      964 1
     365     1468     1490 1
     366      969     1135 1
     367      755     2079 1
     368     1891     2101 1
     369     1444     2088 1
     370      207     1515 1
     371      424     1966 1
     372      376      671 1
     373     1611     1659 1
     374     1059     1920 1
     375     1202     1660 1
     376      621     1505 1
     377      670     1498 1
     378      305      394 1
     379      870     1151 1
     380      271     1896 1
     381     1070     1661 1
     382     1774     1775 1
     383     1193     1675 1
     384      450     1171 1
     385       66      106 1
     386      945     1045 1
     387      178      186 1
     388      130      245 1
     389      253     2096 1
     390     1606     1767 1
     391     1162     2059 1
     392      373      702 1
     393      706      833 1
     394      593     1511 1
     395      170     1564 1
     396      649     1251 1
     397     1127     1957 1
     398       43      727 1
     399      385     2071 1
     400      986     1401 1
     401      747     1646 1
     402     1376     1683 1
     403     1087     1812 1
     404      863     1730 1
     405      834     1603 1
     406      450     2074 1
     407     1157     1860 1
     408     1598     1652 1
     409      753     1508 1
     410      630      656 1
     411      192     1982 1
     412      776     1382 1
     413      654     1054 1
     414     1279     1493 1
     415       77     1113 1
     416      442     1270 1
     417      764      807 1
     418      169     2034 1
     419     1073     1349 1
     420      946     1157 1
     421     1443     1640 1
     422      855     1976 1
     423      580     2086 1
     424      929     1718 1
     425      502     1317 1
     426     1010     1791 1
     427      601      713 1
     428      467      553 1
     429      778     1068 1
     430     1070     1590 1
     431     1198     1613 1
     432      878     1535 1
     433      343     1485 1
     434        4      889 1
     435      290      820 1
     436      891     1174 1
     437       45      572 1
     438     1303     1914 1
     439      293     1682 1
     440      109     1789 1
     441        2      894 1
     442      599     1093 1
     443     1131     2081 1
     444      523     1445 1
     445      476      499 1
     446      163     1116 1
     447      106     1779 1
     448       48     1817 1
     449     1832     2008 1
     450      257      526 1
     451      515     1973 1
     452      595      791 1
     453       41     1816 1
     454      872     1556 1
     455      353     1444 1
     456      509      665 1
     457      211      668 1
     458      377      449 1
     459      355     1309 1
     460     1157     1790 1
     461      715     1484 1
     462      422      864 1
     463      283     1451 1
     464     1400     1401 1
     465     1681     1682 1
     466     1422     2015 1
     467     1123     1215 1
     468     1353     1726 1
     469      227     1107 1
     470      408     1909 1
     471     1293     1853 1
     472      181     1256 1
     473      852     1300 1
     474      238     1639 1
     475     1176     1743 1
     476      870     1194 1
     477      889     1275 1
     478     1003     1313 1
     479      677     1145 1
     480      571     2021 1
     481      936     2003 1
     482      921     1271 1
     483     1003     1893 1
     484      970     1139 1
     485      396     1940 1
     486      242     1257 1
     487     1598     1868 1
     488      974     1932 1
     489      711     1985 1
     490      163      188 1
     491      867      933 1
     492     1406     1486 1
     493      545      775 1
     494      371      642 1
     495      815     1435 1
     496      269     1142 1
     497      894     1771 1
     498      330     1064 1
     499     1635     1895 1
     500      685     1642 1
     501     1135     1187 1
     502     1887     2050 1
     503      900     1511 1
     504     1724     1993 1
     505      642     1050 1
     506       28     1137 1
     507     1091     1116 1
     508     1196     1930 1
     509     1557     1654 1
     510      242     1351 1
     511       28       34 1
     512     1566     1780 1
     513     1506     1891 1
     514      212     2089 1
     515     1249     1549 1
     516      885     2078 1
     517      730     1219 1
     518       53      222 1
     519      250     1779 1
     520      137      232 1
     521      306      766 1
     522      791     1309 1
     523      273      729 1
     524     1212     1935 1
     525      957     1296 1
     526      844     1013 1
     527      919     2053 1
     528      194      244 1
     529      875     1269 1
     530      527     2038 1
     531      326     1530 1
     532       78      994 1
     533      498     1188 1
     534      590     1232 1
     535       34      592 1
     536      691      710 1
     537       21      918 1
     538     1932     2042 1
     539      419      757 1
     540      550     1304 1
     541      154      522 1
     542      429     1525 1
     543      812     2011 1
     544      410     1796 1
     545     1441     1560 1
     546      273     2058 1
     547      343     1279 1
     548      411     1726 1
     549       78     1027 1
     550     1304     2000 1
     551      246     1209 1
     552      828     1575 1
     553      909     1022 1
     554      526     1263 1
     555      760     1849 1
     556     1256     1828 1
     557     1071     1549 1
     558      592     1541 1
     559      930     1122 1
     560      712      998 1
     561      261      657 1
     562     1043     1960 1
     563      749     1260 1
     564      233      919 1
     565      983     1222 1
     566     1286     1593 1
     567      285      563 1
     568      909     1103 1
     569      473     1445 1
     570      573      584 1
     571     1206     1996 1
     572     1010     1446 1
     573      757     1728 1
     574      279      980 1
     575      698     1427 1
     576      496     1805 1
     577     1508     1926 1
     578      191      332 1
     579      635     1239 1
     580      361     1436 1
     581     1398     1865 1
     582      536     1007 1
     583      180      434 1
     584      138      381 1
     585     1494     1510 1
     586      779     1941 1
     587      795     1977 1
     588      874     1753 1
     589     1133     2078 1
     590     1337     1981 1
     591      403     1847 1
     592       83      913 1
     593      895     1141 1
     594       10     1620 1
     595      138      790 1
     596     1349     1784 1
     597       72     1890 1
     598      444     1342 1
     599      417     1834 1
     600      433      611 1
     601      476     1007 1
     602      924     1839 1
     603      560     2020 1
     604       55     1743 1
     605     1773     2033 1
     606     1145     1579 1
     607      327     1904 1
     608     1780     1989 1
     609      238     1732 1
     610      885     1329 1
     611      383      981 1
     612      523     1841 1
     613        8      338 1
     614      860     1510 1
     615     1216     1891 1
     616      732      896 1
     617       57     2039 1
     618      950     1947 1
     619     1347     2051 1
     620      953     1523 1
     621      446      568 1
     622     1079     1321 1
     623      520      722 1
     624     1425     1897 1
     625      468     1328 1
     626     1775     1855 1
     627      398     1633 1
     628      188     1720 1
     629      245     1970 1
     630      339     1753 1
     631      365      929 1
     632     1255     1553 1
     633     1622     1924 1
     634      808      935 1
     635     1503     1554 1
     636      815     1637 1
     637       82      618 1
     638      480     1000 1
     639      313      375 1
     640      447      694 1
     641      364     2083 1
     642     1148     1490 1
     643      297     1592 1
     644     1033     1385 1
     645      318      606 1
     646      302     1667 1
     647      384      803 1
     648      443      845 1
     649      836     1817 1
     650     1368     1972 1
     651      471     2025 1
     652      769     1745 1
     653        5     1255 1
     654      929     1992 1
     655     1094     1455 1
     656      603     2091 1
     657      813     1168 1
     658     1552     1907 1
     659      897     2082 1
     660      971     1561 1
     661       49     1103 1
     662      146     1329 1
     663      911     1029 1
     664      249      482 1
     665      332      876 1
     666      237     1773 1
     667       23       86 1
     668      832      943 1
     669      540     1812 1
     670     1213     1688 1
     671     1521     1730 1
     672     1136     1616 1
     673      247     1475 1
     674     1394     1944 1
     675      859     1319 1
     676      620     2021 1
     677       95      256 1
     678      788     1112 1
     679      159      268 1
     680      397     1536 1
     681     1410     1783 1
     682      569     1135 1
     683      854     1625 1
     684      813     1545 1
     685     1147     1945 1
     686      288     1195 1
     687      516     1516 1
     688      645     1838 1
     689      752     2105 1
     690     1341     1485 1
     691      232      552 1
     692      928     1194 1
     693     1002     1986 1
     694     1469     1913 1
     695       68     1402 1
     696      144     1874 1
     697      782     1979 1
     698      772     1393 1
     699     1877     1945 1
     700      838     1557 1
     701     1131     1913 1
     702     1258     1749 1
     703      507      543 1
     704     1832     2027 1
     705     1671     2070 1
     706      259     1436 1
     707      825     1038 1
     708      236     1354 1
     709      272      888 1
     710      365     1054 1
     711      491     2066 1
     712      234     1960 1
     713      185     1751 1
     714      869     2019 1
     715     1249     1562 1
     716      902     1381 1
     717      923      938 1
     718      594     1035 1
     719       48     1869 1
     720     1098     1207 1
     721      327      613 1
     722     1156     2079 1
     723     1111     1799 1
     724      676     1494 1
     725     1515     1766 1
     726      498      577 1
     727     1241     1462 1
     728       36     1982 1
     729      237      623 1
     730     1127     1391 1
     731      805     1183 1
     732      559     1042 1
     733      736     1828 1
     734     1246     1733 1
     735      711     1977 1
     736       69     1025 1
     737      375     1518 1
     738     1388     1838 1
     739      130      867 1
     740       71      312 1
     741       67     1613 1
     742     1337     1796 1
     743     1691     1858 1
     744       39     1000 1
     745      376     1525 1
     746      242      295 1
     747      845      904 1
     748      494      788 1
     749      689     1983 1
     750      808     1415 1
     751       34      185 1
     752      582     1474 1
     753     1548     1794 1
     754      300     1867 1
     755     1143     2014 1
     756     1291     1323 1
     757      856     1041 1
     758     1221     1805 1
     759      395     1776 1
     760      384      764 1
     761      636      955 1
     762       33     2064 1
     763      421     1981 1
     764     1346     1775 1
     765      148      171 1
     766     1536     2068 1
     767     1063     1920 1
     768      358     1685 1
     769      899     1135 1
     770      287     1119 1
     771     1031     1409 1
     772     1068     1888 1
     773      392      891 1
     774      555      779 1
     775      112      358 1
     776     1328     1815 1
     777      738     1315 1
     778      625     1492 1
     779      609     1006 1
     780      123      364 1
     781      641     1824 1
     782     1058     1629 1
     783      581     1479 1
     784      172      689 1
     785      614      783 1
     786      558     2103 1
     787      961     1130 1
     788      915     1225 1
     789     1317     1897 1
     790      198      589 1
     791      187     1560 1
     792      508     1588 1
     793      454     1055 1
     794     1081     1974 1
     795      138     1978 1
     796     1469     2054 1
     797      368     1608 1
     798     1386     1907 1
     799      236     1951 1
     800       76     1392 1
     801     1400     1889 1
     802       59     1151 1
     803      721     1680 1
     804       14     1309 1
     805      601     1326 1
     806      217     1069 1
     807     1128     1677 1
     808      363      620 1
     809      484     1077 1
     810      438     2071 1
     811      465     1483 1
     812      709     1529 1
     813     1567     1863 1
     814     1043     1918 1
     815      461     1858 1
     816      101      604 1
     817      142      590 1
     818       40     1958 1
     819      336     1655 1
     820     1094     1343 1
     821      187     1909 1
     822      227     1930 1
     823       62     1661 1
     824     1199     1709 1
     825     1191     1209 1
     826     1213     1431 1
     827     1725     1844 1
     828     1244     2074 1
     829      242     1651 1
     830      114     1346 1
     831     1793     2040 1
     832       35     1245 1
     833     1425     1814 1
     834      681     1689 1
     835      499     1698 1
     836      315      573 1
     837     1468     1995 1
     838      414     1976 1
     839      602     1286 1
     840      228      478 1
     841       17     1847 1
     842      220     1240 1
     843      695     1014 1
     844      676      787 1
     845       93      402 1
     846      129     1572 1
     847     1519     1545 1
     848      696     1318 1
     849      504      715 1
     850      349     1511 1
     851      809     1192 1
     852     1036     1564 1
     853        9      737 1
     854     1218     1871 1
     855      524     1522 1
     856      959     1595 1
     857     1184     1554 1
     858      132     1696 1
     859      428     1963 1
     860     1490     2000 1
     861      679     2037 1
     862       73     1334 1
     863      287     1259 1
     864       75     1209 1
     865     1423     1433 1
     866      760     1186 1
     867      184     1278 1
     868      766      819 1
     869     1419     1794 1
     870      947      997 1
     871     1682     1915 1
     872      177     1632 1
     873      437      474 1
     874     1291     1875 1
     875     1661     1694 1
     876      882      911 1
     877      261     1339 1
     878       39     1227 1
     879      599     1901 1
     880      603      865 1
     881      815     1442 1
     882      241      810 1
     883      268      996 1
     884      694     1546 1
     885       34     1914 1
     886     1110     1793 1
     887      521     1089 1
     888     1758     1963 1
     889      563     1570 1
     890      254     1727 1
     891      122      337 1
     892       93      204 1
     893      236     1086 1
     894      264     1206 1
     895      298     1980 1
     896      144     2062 1
     897      771     1976 1
     898      914      999 1
     899      640     1844 1
     900     1006     1908 1
     901      867     1715 1
     902       77      566 1
     903      159     1156 1
     904      678     1458 1
     905        6       95 1
     906      118     1977 1
     907      750     2015 1
     908      197     1248 1
     909      288      804 1
     910     1657     1980 1
     911       93     1287 1
     912      290      348 1
     913      209     1143 1
     914      814     1604 1
     915      632     2044 1
     916     1392     1456 1
     917      205      583 1
     918      198     1146 1
     919      651      683 1
     920       17       72 1
     921      461     1364 1
     922      570     2087 1
     923     1799     1954 1
     924       40     1953 1
     925     1812     2097 1
     926      657      793 1
     927      124     1204 1
     928     1154     1412 1
     929      123     1112 1
     930      459      601 1
     931      529     2045 1
     932      411      491 1
     933      661     1336 1
     934      710     1037 1
     935      890     1421 1
     936      255     1460 1
     937      202     1462 1
     938     1931     2042 1
     939       11     1995 1
     940      729     1192 1
     941      487     2042 1
     942      474     1356 1
     943      239     1825 1
     944     1699     1703 1
     945     1056     1149 1
     946     1237     1331 1
     947      155      797 1
     948     1822     1999 1
     949      422      622 1
     950       45     1155 1
     951     1737     1757 1
     952      593      947 1
     953      340      698 1
     954      425      531 1
     955     1091     2099 1
     956     1574     1835 1
     957        9     1113 1
     958      105      376 1
     959     1252     1531 1
     960      441      780 1
     961      588     1010 1
     962      481     1469 1
     963      748     1867 1
     964      262      731 1
     965      511     1903 1
     966     1228     1517 1
     967      518     1548 1
     968      308     1487 1
     969      426     1482 1
     970     1162     1931 1
     971      839      946 1
     972     1366     1952 1
     973       97      146 1
     974      994     1123 1
     975     1082     1742 1
     976      824     1810 1
     977     1369     1974 1
     978       85     1051 1
     979      358      927 1
     980      497     1106 1
     981      793     2086 1
     982      325     1142 1
     983      423      667 1
     984      145     1259 1
     985      848     1213 1
     986      857      980 1
     987      746      836 1
     988     1140     1393 1
     989      404      884 1
     990     1133     1163 1
     991     1432     2077 1
     992      523      755 1
     993     1038     1704 1
     994      555     1081 1
     995      574      993 1
     996      624     1481 1
     997      735     1393 1
     998      201     1598 1
     999     1185     1948 1
    1000      591      621 1
    1001      196     1224 1
    1002     1186     1679 1
    1003      190      322 1
    1004     1653     2093 1
    1005      910      932 1
    1006      347     1871 1
    1007      606     2035 1
    1008     1237     1292 1
    1009      330      390 1
    1010      354     1433 1
    1011      576     1713 1
    1012      267     1188 1
    1013      401      716 1
    1014      722     1223 1
    1015     1179     1568 1
    1016      442     1600 1
    1017     1588     2101 1
    1018      600     1635 1
    1019     1905     1927 1
    1020      299     1788 1
    1021     1550     1955 1
    1022      681     1422 1
    1023      407     1441 1
    1024     1151     1687 1
    1025      182      630 1
    1026      539     1632 1
    1027      550     1064 1
    1028      815      837 1
    1029      111     1407 1
    1030      491      903 1
    1031     1115     1754 1
    1032       58      973 1
    1033      872      937 1
    1034     1480     1958 1
    1035      245     1586 1
    1036      556     1555 1
    1037       16     1668 1
    1038      119      949 1
    1039      273     1934 1
    1040      455      682 1
    1041       27     1916 1
    1042     1028     1414 1
    1043     1288     1938 1
    1044      134      535 1
    1045      257     1098 1
    1046     1717     1748 1
    1047      986     1744 1
    1048      565     1531 1
    1049      239      945 1
    1050      399     1769 1
    1051      257      412 1
    1052      721     1311 1
    1053     1171     2076 1
    1054      272     1290 1
    1055      335     2043 1
    1056      547     1155 1
    1057       79     1182 1
    1058       15      175 1
    1059     1082     1908 1
    1060      458     1677 1
    1061     1447     1745 1
    1062      316     1048 1
    1063      149     1857 1
    1064       25       31 1
    1065      868     1501 1
    1066     1765     1982 1
    1067      582     1149 1
    1068      183     1368 1
    1069      194     1663 1
    1070       35      230 1
    1071     1016     1840 1
    1072      377     1644 1
    1073      833     1758 1
    1074      522     1114 1
    1075     1283     2067 1
    1076     1068     1670 1
    1077      383      575 1
    1078     1327     2086 1
    1079      975     1810 1
    1080      363     1619 1
    1081      129     2069 1
    1082      978     1428 1
    1083     1068     1657 1
    1084      569      968 1
    1085      724      940 1
    1086      370      763 1
    1087      989     2019 1
    1088      350     2015 1
    1089      838     1948 1
    1090      470     1903 1
    1091     1658     1784 1
    1092      204     1322 1
    1093      924     1551 1
    1094      393      523 1
    1095      744     1205 1
    1096      906     1116 1
    1097      122     1991 1
    1098      792     1251 1
    1099      294      808 1
    1100      160      961 1
    1101     1458     1939 1
    1102       61      499 1
    1103      324      805 1
    1104      962     1933 1
    1105      576     1491 1
    1106       73      535 1
    1107     1334     1800 1
    1108      382     1512 1
    1109      214      942 1
    1110      519     1834 1
    1111      581      956 1
    1112     1080     1933 1
    1113      460     1757 1
    1114      133     1553 1
    1115      416     2061 1
    1116      275      568 1
    1117      284     1985 1
    1118     1686     1990 1
    1119      665     1017 1
    1120      657     2090 1
    1121      878     1818 1
    1122     1357     1843 1
    1123       94      264 1
    1124      335     1348 1
    1125      480     1022 1
    1126      732      939 1
    1127     1168     1517 1
    1128      279      766 1
    1129     1919     1993 1
    1130       59     1686 1
    1131      131     1965 1
    1132     1320     1940 1
    1133      693     1621 1
    1134      713      843 1
    1135      784     1528 1
    1136      737     1012 1
    1137      140     2099 1
    1138      309     2035 1
    1139     1461     2022 1
    1140     1104     1512 1
    1141      757     1642 1
    1142     1075     1638 1
    1143     1056     1372 1
    1144      551     1537 1
    1145      104     1512 1
    1146     1260     2072 1
    1147     1229     1557 1
    1148      598      683 1
    1149     1084     1601 1
    1150      910     1963 1
    1151     1345     2074 1
    1152      387     1397 1
    1153      533      572 1
    1154      315     1322 1
    1155      979     2003 1
    1156      674     1227 1
    1157        1      255 1
    1158      533     1612 1
    1159     1392     1854 1
    1160      858     1611 1
    1161     1480     1645 1
    1162      802      951 1
    1163     1334     1961 1
    1164      717      943 1
    1165      834     1923 1
    1166       40     1641 1
    1167     1222     1782 1
    1168      372     1206 1
    1169     1006     1243 1
    1170      307      590 1
    1171     1601     1906 1
    1172       56      529 1
    1173       25      157 1
    1174      602      987 1
    1175     1398     2001 1
    1176     1207     1678 1
    1177       97      966 1
    1178      389      513 1
    1179      492     1172 1
    1180      115      247 1
    1181      811     1090 1
    1182      236      457 1
    1183      285      716 1
    1184      579     1306 1
    1185      881     1049 1
    1186     1952     2072 1
    1187     1203     1863 1
    1188      132     1578 1
    1189     1458     1902 1
    1190      622      853 1
    1191      281     1614 1
    1192      973     1108 1
    1193       61     1110 1
    1194     1420     1994 1
    1195     1280     1523 1
    1196      599     1826 1
    1197      189     1590 1
    1198      667      715 1
    1199      157     1004 1
    1200      334      736 1
    1201       29     1668 1
    1202      433     1282 1
    1203     1447     1524 1
    1204      886     1564 1
    1205      285     1848 1
    1206      595     2076 1
    1207     1040     1825 1
    1208     1611     1912 1
    1209      685     1211 1
    1210     1024     1143 1
    1211      248     1467 1
    1212     1308     1541 1
    1213     1347     1544 1
    1214      893     2064 1
    1215      386     1940 1
    1216      900     1423 1
    1217      410     1198 1
    1218      892     1310 1
    1219     1097     1408 1
    1220      201     1251 1
    1221      834     1290 1
    1222     1190     2092 1
    1223      442     1596 1
    1224      358     2027 1
    1225        7     1263 1
    1226     1928     2005 1
    1227      531      632 1
    1228      970     1518 1
    1229     1344     1792 1
    1230     1419     1976 1
    1231      614     1332 1
    1232      836     2052 1
    1233      427     1911 1
    1234      676     1004 1
    1235      357      758 1
    1236     1808     1997 1
    1237      530     1529 1
    1238      911     1988 1
    1239      585     1303 1
    1240     1387     1598 1
    1241      148     1969 1
    1242     1499     1937 1
    1243      425      672 1
    1244      609      980 1
    1245       90      840 1
    1246     1014     1383 1
    1247      176     1251 1
    1248      351      922 1
    1249      331     1369 1
    1250      272     1363 1
    1251       91      974 1
    1252     1008     1033 1
    1253     1007     1039 1
    1254     1349     1566 1
    1255      921     1467 1
    1256      423     1723 1
    1257      360     1490 1
    1258      383     1411 1
    1259      462      624 1
    1260      670     1080 1
    1261      347     1983 1
    1262      292     1352 1
    1263      423     1662 1
    1264      214     1573 1
    1265      862     1083 1
    1266      638     1125 1
    1267       13     1478 1
    1268      312     1148 1
    1269      265     2023 1
    1270     1629     1632 1
    1271      634     1927 1
    1272      834     1670 1
    1273      993     1641 1
    1274      274     1293 1
    1275        6     1945 1
    1276      708      971 1
    1277      312     1465 1
    1278      296     1291 1
    1279     1626     1966 1
    1280      497     1676 1
    1281       32     1044 1
    1282      968     1232 1
    1283      865     1328 1
    1284     1239     1592 1
    1285      254     1803 1
    1286      725     1565 1
    1287      653     1483 1
    1288      595      852 1
    1289      847     1760 1
    1290     1437     1502 1
    1291      336     1705 1
    1292      405     1585 1
    1293      364     1041 1
    1294      573      851 1
    1295     1177     1426 1
    1296       74      983 1
    1297      966     1905 1
    1298      692     1461 1
    1299     1781     2051 1
    1300      404     1017 1
    1301      273     1264 1
    1302      235     1300 1
    1303      194     1390 1
    1304      370     1815 1
    1305     1696     1733 1
    1306      722     1166 1
    1307     1574     2011 1
    1308      951     1735 1
    1309     1177     1415 1
    1310       83     2029 1
    1311     1259     1498 1
    1312     1496     1640 1
    1313      493      872 1
    1314      161      833 1
    1315      568     1281 1
    1316     1635     2006 1
    1317      149      879 1
    1318     1625     1634 1
    1319     1133     2065 1
    1320      926     1650 1
    1321      704     1558 1
    1322      224      280 1
    1323     1165     1373 1
    1324     1119     1362 1
    1325     1275     1962 1
    1326      190      743 1
    1327     1684     1706 1
    1328      635     1578 1
    1329      392     1210 1
    1330     1454     1570 1
    1331      567     1640 1
    1332      665     1886 1
    1333       91     1260 1
    1334      972     1179 1
    1335      615     1930 1
    1336     1175     1789 1
    1337      767     1726 1
    1338      203     1394 1
    1339     1063     1461 1
    1340       38      727 1
    1341     1493     1902 1
    1342      200      632 1
    1343      197     1842 1
    1344      208     1078 1
    1345     1194     1246 1
    1346      473     1788 1
    1347      780     1316 1
    1348      997     1092 1
    1349     1707     1780 1
    1350     1048     1190 1
    1351     1385     2012 1
    1352     1403     1576 1
    1353      217      790 1
    1354      451     2003 1
    1355      231      766 1
    1356     1374     1759 1
    1357      270      338 1
    1358      761      966 1
    1359      703     1818 1
    1360      635     2020 1
    1361      341     1425 1
    1362      908     1365 1
    1363      759     1955 1
    1364     1194     1852 1
    1365     1024     1813 1
    1366      764     1879 1
    1367       99     1987 1
    1368     1264     1536 1
    1369      533     1253 1
    1370     1534     1748 1
    1371     1514     1692 1
    1372      582      651 1
    1373      547     1377 1
    1374      100      938 1
    1375      702      952 1
    1376      103     2024 1
    1377      827      841 1
    1378     2024     2046 1
    1379      463      760 1
    1380     1367     1764 1
    1381      243     1049 1
    1382      329      624 1
    1383      354     1424 1
    1384      437     2012 1
    1385       70     1341 1
    1386      297      551 1
    1387      642     2065 1
    1388      386      683 1
    1389      333     2012 1
    1390     1081     1717 1
    1391      114      610 1
    1392      780     1624 1
    1393      848     1843 1
    1394      685     1683 1
    1395     1420     1614 1
    1396      991     1117 1
    1397     1097     2047 1
    1398      430     1811 1
    1399      317     1436 1
    1400      288      906 1
    1401     1515     1649 1
    1402      378      453 1
    1403      587     1529 1
    1404      321     1224 1
    1405     1158     1690 1
    1406      343     2010 1
    1407      417      762 1
    1408     1092     1424 1
    1409      998     1852 1
    1410     1549     2105 1
    1411      782      905 1
    1412      213     1497 1
    1413      341      897 1
    1414     1383     1759 1
    1415      406      737 1
    1416      669     2048 1
    1417      107      448 1
    1418      507     1677 1
    1419      251      464 1
    1420      817     1687 1
    1421     1158     1926 1
    1422     1262     1529 1
    1423     1254     1483 1
    1424      837     1805 1
    1425      414     1321 1
    1426       20      800 1
    1427      190     1476 1
    1428      803     1971 1
    1429      814     1044 1
    1430      152     2085 1
    1431      303      453 1
    1432      490     1118 1
    1433     1428     1972 1
    1434      991     2060 1
    1435      354      862 1
    1436      429      821 1
    1437      495     1162 1
    1438     1276     1509 1
    1439      226     1896 1
    1440      283     1647 1
    1441      343     1200 1
    1442      643     1514 1
    1443     1062     1973 1
    1444      941     1296 1
    1445     2070     2077 1
    1446      717     1134 1
    1447     1012     1220 1
    1448      467     1622 1
    1449     1141     1885 1
    1450       89      668 1
    1451      762     1423 1
    1452      684      697 1
    1453      893     1822 1
    1454      773      801 1
    1455      842     1467 1
    1456      449     1277 1
    1457      751     1020 1
    1458      378     1713 1
    1459      260     1721 1
    1460     1779     1893 1
    1461     1753     1862 1
    1462      883     1995 1
    1463     1109     1168 1
    1464      101     1634 1
    1465      166     1867 1
    1466      115     2024 1
    1467     1820     1838 1
    1468      581     1797 1
    1469     1669     1851 1
    1470      321      980 1
    1471      641     1886 1
    1472     1114     1828 1
    1473     1231     1449 1
    1474      686     1064 1
    1475     1212     1947 1
    1476      469      551 1
    1477      112     1358 1
    1478      668     1324 1
    1479      718     1412 1
    1480     1204     1643 1
    1481      830     1402 1
    1482      281     1209 1
    1483      990     1933 1
    1484      269     1982 1
    1485      781     1618 1
    1486     1105     1831 1
    1487     1497     1689 1
    1488      426      868 1
    1489      749     1317 1
    1490      186     1345 1
    1491      157     1539 1
    1492      124     1031 1
    1493      360     1994 1
    1494      214     1965 1
    1495      440     1434 1
    1496      655     2079 1
    1497      674     1188 1
    1498      794     1350 1
    1499      326     1045 1
    1500     1008     1444 1
    1501     1369     1399 1
    1502      219     1206 1
    1503      537     1777 1
    1504      347     1371 1
    1505      618     1957 1
    1506      383     1544 1
    1507     1265     1269 1
    1508      220     2046 1
    1509      391      782 1
    1510      776     1312 1
    1511      894      988 1
    1512      169     1645 1
    1513      218      892 1
    1514      111     1126 1
    1515      520     1127 1
    1516      405      783 1
    1517      154     1575 1
    1518      284     1752 1
    1519     1021     1094 1
    1520      556      662 1
    1521     1185     1321 1
    1522     1831     1909 1
    1523      491     1435 1
    1524      391     2100 1
    1525      847     2096 1
    1526     1618     1849 1
    1527      552      688 1
    1528     1075     1161 1
    1529     1258     1971 1
    1530      908     1067 1
    1531     1452     1891 1
    1532      320     1198 1
    1533      683     1459 1
    1534      288     1875 1
    1535     1231     1532 1
    1536      501     1835 1
    1537      149     1073 1
    1538      545      633 1
    1539      429      645 1
    1540     1341     1808 1
    1541      171      892 1
    1542      199      932 1
    1543      454     2030 1
    1544      689     1161 1
    1545      522     1917 1
    1546       43      272 1
    1547      260     1704 1
    1548      856     1941 1
    1549     1234     2077 1
    1550      595     1437 1
    1551     1224     1778 1
    1552      155     1137 1
    1553      739     1611 1
    1554      228     1215 1
    1555     1318     1582 1
    1556       24     1108 1
    1557      153      464 1
    1558       51     1182 1
    1559     1183     2050 1
    1560      110     2001 1
    1561      198     1314 1
    1562       15     2022 1
    1563     2016     2092 1
    1564     1431     1782 1
    1565      452     2063 1
    1566      472     1894 1
    1567      959     1967 1
    1568      677     1625 1
    1569      665      869 1
    1570     1144     1541 1
    1571     1368     1698 1
    1572      430     1270 1
    1573      849     1623 1
    1574      915     1253 1
    1575      601     1809 1
    1576      431     1019 1
    1577      706      957 1
    1578     1360     1472 1
    1579       57     1236 1
    1580        3     1640 1
    1581      663     1564 1
    1582      406     1319 1
    1583      310     1318 1
    1584      374     1513 1
    1585      490     1681 1
    1586      694     1856 1
    1587     1954     2032 1
    1588     1330     1624 1
    1589     1176     1669 1
    1590      624     1407 1
    1591     1454     2092 1
    1592     1483     1580 1
    1593      479     1646 1
    1594     1023     2064 1
    1595      169     1770 1
    1596     1516     1827 1
    1597     1391     1769 1
    1598      435      897 1
    1599      637     1691 1
    1600      295      387 1
    1601     1813     1946 1
    1602     1799     2095 1
    1603      552     1310 1
    1604      366     1019 1
    1605      697     1358 1
    1606      877     1318 1
    1607       38       67 1
    1608      174      725 1
    1609      974     1320 1
    1610     1044     1594 1
    1611       76     1477 1
    1612      484      955 1
    1613      925      971 1
    1614      289      313 1
    1615      567     1593 1
    1616      671     1472 1
    1617      222     1953 1
    1618      506     1469 1
    1619     1131     1459 1
    1620     1289     1614 1
    1621      241     1969 1
    1622      776     1787 1
    1623      116     1033 1
    1624     1706     1828 1
    1625      636      730 1
    1626     1005     1980 1
    1627      541     1115 1
    1628      800     1107 1
    1629     1701     1842 1
    1630      306      417 1
    1631       30     1145 1
    1632     1464     1671 1
    1633      102     2100 1
    1634       35      510 1
    1635     1294     1477 1
    1636     1697     1821 1
    1637      845     1964 1
    1638      317     1300 1
    1639      218      740 1
    1640       92     1501 1
    1641      500     1115 1
    1642     1321     1722 1
    1643      648      945 1
    1644     1845     1968 1
    1645      891      969 1
    1646      776      896 1
    1647      222     1724 1
    1648       90      614 1
    1649      152     1225 1
    1650     1461     1892 1
    1651       88     1686 1
    1652       27      231 1
    1653     1028     1768 1
    1654      485      977 1
    1655      534     2050 1
    1656      577     1597 1
    1657      466     2073 1
    1658      463     1162 1
    1659     1089     1589 1
    1660      953     1083 1
    1661      597     1403 1
    1662      561      845 1
    1663      445     1502 1
    1664      258      434 1
    1665      631     1031 1
    1666      622     2055 1
    1667      311      471 1
    1668     1571     1854 1
    1669      379     1242 1
    1670      395     2049 1
    1671       45     1196 1
    1672      181      608 1
    1673     1216     1668 1
    1674     2018     2079 1
    1675      650     1473 1
    1676      460     2061 1
    1677     1799     1949 1
    1678       82      497 1
    1679       50      148 1
    1680     1026     1049 1
    1681      527      554 1
    1682      407      613 1
    1683     1121     1523 1
    1684      978     1550 1
    1685      873     1667 1
    1686      146      223 1
    1687      346     1421 1
    1688      417     1432 1
    1689      799     1759 1
    1690       81     1482 1
    1691      914     1163 1
    1692      492     1795 1
    1693     1853     2104 1
    1694       85      598 1
    1695      720     2092 1
    1696      305      682 1
    1697     1554     1778 1
    1698      444     2058 1
    1699     1180     2019 1
    1700      985     1038 1
    1701     1072     1172 1
    1702      325      968 1
    1703      518     1797 1
    1704      445     1759 1
    1705      275      334 1
    1706     1315     1996 1
    1707      992     1802 1
    1708     1009     1691 1
    1709      721     1178 1
    1710      247     1370 1
    1711      745     1056 1
    1712      216     1384 1
    1713       95      656 1
    1714      768     1134 1
    1715      351     2075 1
    1716      181     1898 1
    1717       71     1614 1
    1718      707     1340 1
    1719      347     1475 1
    1720      562     1523 1
    1721       84      471 1
    1722      579     1708 1
    1723     1924     2013 1
    1724      404     2037 1
    1725      301      721 1
    1726      661     1381 1
    1727      913     1896 1
    1728      702     1859 1
    1729       84      426 1
    1730      546     1507 1
    1731      230      387 1
    1732      769     1076 1
    1733      641     1180 1
    1734      356      596 1
    1735      313      802 1
    1736      186     1899 1
    1737      461      628 1
    1738      918     1581 1
    1739       93      470 1
    1740     1338     1479 1
    1741      739     1843 1
    1742      543      754 1
    1743      552      810 1
    1744     1306     2021 1
    1745      160      388 1
    1746      145     1963 1
    1747      205      936 1
    1748      455     1991 1
    1749       53       56 1
    1750      274     1141 1
    1751      577     1672 1
    1752      594     1950 1
    1753      150      940 1
    1754      494      673 1
    1755      398     2104 1
    1756      109     2032 1
    1757      948     1224 1
    1758      103      433 1
    1759       30     1394 1
    1760     1010     1761 1
    1761     1120     1376 1
    1762      666     1520 1
    1763      915     1734 1
    1764      497      763 1
    1765     1333     1703 1
    1766     1072     2039 1
    1767       23     1762 1
    1768      718     1570 1
    1769      565     1669 1
    1770       63     1792 1
    1771     1632     1728 1
    1772      433     1899 1
    1773     1436     1506 1
    1774      758     1504 1
    1775      425     1169 1
    1776      430      612 1
    1777     1143     1798 1
    1778      996     1841 1
    1779     1487     2066 1
    1780       55     1528 1
    1781       65      303 1
    1782     1526     1940 1
    1783     1293     1956 1
    1784       87     1113 1
    1785     1679     1910 1
    1786     1278     1878 1
    1787       60     1233 1
    1788      166      843 1
    1789       26      605 1
    1790      500     1883 1
    1791     1405     1980 1
    1792      348     2005 1
    1793      302     1985 1
    1794      407     1165 1
    1795      644      704 1
    1796      249      916 1
    1797      907     1997 1
    1798      354     1735 1
    1799      101      517 1
    1800      854     1679 1
    1801     1259     2080 1
    1802      746     1847 1
    1803      127     1591 1
    1804      221      327 1
    1805      638     1567 1
    1806     1935     2031 1
    1807      799     2050 1
    1808     1006     1085 1
    1809     1994     2052 1
    1810     1376     1656 1
    1811      102      693 1
    1812      758     1714 1
    1813      642      954 1
    1814      485     1074 1
    1815      412     1993 1
    1816      368      473 1
    1817      808     1990 1
    1818     1079     1373 1
    1819     1421     1551 1
    1820      822     1373 1
    1821      991     1647 1
    1822     1520     1783 1
    1823      390      553 1
    1824     1218     1987 1
    1825      540     1545 1
    1826      235     1502 1
    1827      866     1999 1
    1828     1460     1562 1
    1829       86      564 1
    1830     1284     1835 1
    1831      137      849 1
    1832      307     1644 1
    1833      374      644 1
    1834     1056     1305 1
    1835     1731     2001 1
    1836     1636     1843 1
    1837     1616     2002 1
    1838      958     1434 1
    1839        4      710 1
    1840      871     1462 1
    1841      725     1621 1
    1842      122     1430 1
    1843      528      941 1
    1844      863     1748 1
    1845      489     1003 1
    1846       67     1888 1
    1847     1362     1434 1
    1848     1510     1770 1
    1849     1029     2036 1
    1850       31       80 1
    1851       22      144 1
    1852     1174     1199 1
    1853      666     1272 1
    1854     1218     1439 1
    1855      355     1863 1
    1856      632     1819 1
    1857     1119     1739 1
    1858     1243     1769 1
    1859      294      551 1
    1860      425     1060 1
    1861     1124     1276 1
    1862     1659     1753 1
    1863       15      549 1
    1864      513      816 1
    1865      421     2023 1
    1866      449     1257 1
    1867      464     2073 1
    1868      639     1675 1
    1869      253     1312 1
    1870     1326     1428 1
    1871      675     1092 1
    1872      127      164 1
    1873      554     1512 1
    1874     1027     1403 1
    1875      253     1095 1
    1876      226      710 1
    1877      385      919 1
    1878      388     1011 1
    1879      378      420 1
    1880     1123     1184 1
    1881      556     1664 1
    1882      664     1227 1
    1883      708     1142 1
    1884      670     1167 1
    1885       99     1695 1
    1886      439     1478 1
    1887      380      722 1
    1888      119     1126 1
    1889      751     1757 1
    1890     1106     1752 1
    1891      467     1235 1
    1892      965     1240 1
    1893     1144     1330 1
    1894      995     1832 1
    1895      533     1034 1
    1896      402     1883 1
    1897       31      415 1
    1898       60      607 1
    1899      472     1426 1
    1900      320      472 1
    1901     1365     1684 1
    1902      564     1527 1
    1903      462     1019 1
    1904     1248     1561 1
    1905      935     1198 1
    1906      121     1571 1
    1907      578     1751 1
    1908      545      826 1
    1909      752      992 1
    1910     1082     1193 1
    1911     1692     2074 1
    1912      839     1018 1
    1913     1134     1801 1
    1914      438      963 1
    1915      400     1278 1
    1916      119      557 1
    1917      537      770 1
    1918      931     1947 1
    1919      107      937 1
    1920      972     1059 1
    1921     1553     2063 1
    1922      329     1947 1
    1923      494     1772 1
    1924       54      603 1
    1925     1273     1769 1
    1926     1159     1927 1
    1927      508     1105 1
    1928      606     1500 1
    1929      941     2080 1
    1930      886     1303 1
    1931      191     1404 1
    1932     1033     1129 1
    1933      856     1819 1
    1934     1618     1910 1
    1935       94     1096 1
    1936      573     1173 1
    1937      217      859 1
    1938       41      212 1
    1939      319     1968 1
    1940     1880     2071 1
    1941     1061     1945 1
    1942      225     1599 1
    1943      224      973 1
    1944       42     1338 1
    1945     1712     1794 1
    1946       94     1763 1
    1947        5      687 1
    1948      186     1543 1
    1949       44      773 1
    1950      513     1015 1
    1951      246      390 1
    1952     1508     2028 1
    1953       69     1497 1
    1954       48     1870 1
    1955      367     1242 1
    1956      675     1911 1
    1957      547     1414 1
    1958     1865     2004 1
    1959      754     1072 1
    1960      468     1082 1
    1961      623     1814 1
    1962     2071     2085 1
    1963       21      266 1
    1964     1553     1833 1
    1965      369      704 1
    1966     1226     1783 1
    1967      949     2001 1
    1968      558      649 1
    1969      942     1271 1
    1970      223     1661 1
    1971      658      991 1
    1972     1220     1921 1
    1973      116      560 1
    1974      486      811 1
    1975     1083     1710 1
    1976     1104     1268 1
    1977      458      492 1
    1978     1140     1743 1
    1979      789     1904 1
    1980     1392     1453 1
    1981     1785     1838 1
    1982     1281     2032 1
    1983      517     1829 1
    1984      309      741 1
    1985      342      424 1
    1986     1221     1258 1
    1987      696      779 1
    1988      836     1325 1
    1989      898     1764 1
    1990      619     1536 1
    1991       96     1462 1
    1992     1577     1751 1
    1993     1446     1962 1
    1994       45      525 1
    1995      738      740 1
    1996     1402     2013 1
    1997      737     1615 1
    1998      120     1139 1
    1999     1751     2062 1
    2000      278     1625 1
    2001     1584     1821 1
    2002      558     2031 1
    2003      199      679 1
    2004      101      139 1
    2005      331     1575 1
    2006       20     1811 1
    2007      396     1317 1
    2008      823     1463 1
    2009      855      986 1
    2010     1418     1488 1
    2011      530     1986 1
    2012      299     1664 1
    2013      871     1003 1
    2014     1633     2038 1
    2015     1542     1646 1
    2016     1247     1802 1
    2017      957     1663 1
    2018      303      977 1
    2019        1     1492 1
    2020      691     1700 1
    2021     1152     1528 1
    2022      127     1238 1
    2023     1092     1404 1
    2024      220      612 1
    2025     1539     1777 1
    2026      139     1825 1
    2027     1269     1750 1
    2028     1112     1872 1
    2029      496     1016 1
    2030       26      128 1
    2031       37     1042 1
    2032      744     1836 1
    2033      212      765 1
    2034     1030     1748 1
    2035     1137     1451 1
    2036      189     1927 1
    2037     1693     2061 1
    2038      229     2040 1
    2039      339     1608 1
    2040       29     1560 1
    2041      247      611 1
    2042        3      770 1
    2043     1250     2011 1
    2044     1382     1821 1
    2045     1738     2023 1
    2046     1719     1743 1
    2047      147      214 1
    2048      444      703 1
    2049      514     1139 1
    2050      888     1531 1
    2051      165     2032 1
    2052      373     1560 1
    2053     1053     1110 1
    2054       23     1662 1
    2055      543     1579 1
    2056       56     1582 1
    2057      254     1615 1
    2058      646     1924 1
    2059      973     1694 1
    2060      293      876 1
    2061      447     1691 1
    2062      176     1601 1
    2063      489     1781 1
    2064      981     1997 1
    2065      113     1781 1
    2066      478     1210 1
    2067      940     1230 1
    2068      267     1757 1
    2069      514     1523 1
    2070     1473     2106 1
    2071      444     1301 1
    2072      744     1187 1
    2073       66      202 1
    2074      158     1545 1
    2075       10      448 1
    2076      988     1650 1
    2077      389      618 1
    2078      452      687 1
    2079      203     1829 1
    2080     1019     1154 1
    2081     1773     1894 1
    2082      299      393 1
    2083       20     1046 1
    2084     1360     2019 1
    2085      194     1597 1
    2086      151      290 1
    2087       24       75 1
    2088      129     1230 1
    2089      543      604 1
    2090      345      876 1
    2091       27     1767 1
    2092     1396     1925 1
    2093      338     1768 1
    2094      532     1816 1
    2095     1510     1936 1
    2096      568     1406 1
    2097      220     1375 1
    2098      822     1463 1
    2099      918     1722 1
    2100      589     1623 1
    2101      861     1986 1
    2102      723     1218 1
    2103      260      735 1
    2104      245      428 1
    2105      208     1456 1
    2106       31     1702 1
    2107     1522     1877 1
    2108       88      715 1
    2109     1471     1781 1
    2110      956     1368 1
    2111      664      833 1
    2112      998     1771 1
    2113     1053     1794 1
    2114      451      770 1
    2115      960     1400 1
    2116      843     1071 1
    2117      494     1015 1
    2118     1556     1876 1
    2119      215     1994 1
    2120       56     1060 1
    2121      944     1660 1
    2122     1440     1798 1
    2123      573     1699 1
    2124      684     1869 1
    2125      726     1677 1
    2126       13      844 1
    2127     1020     1111 1
    2128      805     1900 1
    2129      779     1678 1
    2130      525     2023 1
    2131      545     1302 1
    2132      797     1036 1
    2133      277     1956 1
    2134      434     1457 1
    2135      996     1975 1
    2136     1623     1890 1
    2137      292     1208 1
    2138     1181     1319 1
    2139     1109     1660 1
    2140      966     1573 1
    2141      290     1448 1
    2142     1164     1752 1
    2143      912     2067 1
    2144       80     1653 1
    2145      136      603 1
    2146      136      794 1
    2147      177     1789 1
    2148     1518     1710 1
    2149     1047     1269 1
    2150      681      705 1
    2151     1119     1749 1
    2152     1182     1266 1
    2153      636      880 1
    2154      519     2029 1
    2155      986     1001 1
    2156      894     1274 1
    2157     1507     1631 1
    2158      191      761 1
    2159       46      971 1
    2160     1803     1863 1
    2161      809     1535 1
    2162      206     1116 1
    2163      452     1716 1
    2164      777     1730 1
    2165      700     2067 1
    2166     1542     2040 1
    2167     1447     1718 1
    2168     1250     2100 1
    2169      965     1153 1
    2170      535      806 1
    2171      430     1125 1
    2172     2057     2099 1
    2173      418     1653 1
    2174      469      817 1
    2175     1228     1734 1
    2176      481     1268 1
    2177      291      518 1
    2178      803     1429 1
    2179      326     1610 1
    2180     1607     2102 1
    2181      811     1166 1
    2182      536     1966 1
    2183      744     1674 1
    2184      167     1219 1
    2185      817     1800 1
    2186      263     1336 1
    2187     1132     1248 1
    2188     1211     2024 1
    2189     1650     1736 1
    2190      769     2047 1
    2191      767     1733 1
    2192      262      580 1
    2193     1744     1968 1
    2194     1418     1450 1
    2195      395     1584 1
    2196     1099     1304 1
    2197     1112     1299 1
    2198      688     1066 1
    2199      436      760 1
    2200      590     1197 1
    2201       18       40 1
    2202      309      639 1
    2203      367     2061 1
    2204       52     1920 1
    2205      475     1263 1
    2206      911     1949 1
    2207      173      967 1
    2208      128      843 1
    2209       12      566 1
    2210     1042     1295 1
    2211      472     1078 1
    2212      141     1267 1
    2213      719      879 1
    2214     1929     2087 1
    2215      337     1822 1
    2216      292     1654 1
    2217      841     1507 1
    2218      811     1766 1
    2219      829     1231 1
    2220     1075     1639 1
    2221      298      938 1
    2222      165     1188 1
    2223      266      750 1
    2224       19     1381 1
    2225     1210     1413 1
    2226     1377     1981 1
    2227     1381     1491 1
    2228      188     2016 1
    2229      679     1340 1
    2230      244     1168 1
    2231      917     2012 1
    2232      756     1369 1
    2233      940     1790 1
    2234      376     1736 1
    2235      111     1302 1
    2236     1054     2091 1
    2237       89      212 1
    2238     1726     2028 1
    2239     1384     1466 1
    2240     1044     1861 1
    2241     1816     1959 1
    2242     1182     1572 1
    2243     1014     1738 1
    2244       60      328 1
    2245      901     1660 1
    2246     1304     1806 1
    2247     1313     1588 1
    2248      282      797 1
    2249        8     1228 1
    2250      388      726 1
    2251     1103     2009 1
    2252      473     1265 1
    2253      516     1122 1
    2254      107     1396 1
    2255      602     1527 1
    2256      732     1885 1
    2257      208     1754 1
    2258     1228     1612 1
    2259     1133     1496 1
    2260       60     2026 1
    2261     2041     2098 1
    2262      785      963 1
    2263      734     1818 1
    2264      129     2017 1
    2265      353      564 1
    2266       10      539 1
    2267      251      782 1
    2268      119      633 1
    2269      310     1288 1
    2270      591      915 1
    2271      965     1282 1
    2272     1361     1950 1
    2273     1408     1675 1
    2274     1293     1912 1
    2275      137      660 1
    2276     1066     1284 1
    2277      351     1882 1
    2278     1058     1371 1
    2279      350     1601 1
    2280     1248     1978 1
    2281      299      934 1
    2282      707     1298 1
    2283      413     2042 1
    2284     1755     1789 1
    2285     1016     2049 1
    2286      625     2036 1
    2287       65      596 1
    2288      560     2054 1
    2289      615     1339 1
    2290      336     1845 1
    2291       98     1903 1
    2292      527      786 1
    2293      628     1571 1
    2294     1580     1604 1
    2295      168      606 1
    2296     1241     1847 1
    2297      765     1782 1
    2298      647     1883 1
    2299     1141     1630 1
    2300      126     1434 1
    2301     1242     1715 1
    2302      370      884 1
    2303       99     1311 1
    2304     1387     1962 1
    2305     1011     1418 1
    2306      959     1538 1
    2307       81     1374 1
    2308       26      982 1
    2309      378      784 1
    2310     1648     2104 1
    2311      169      777 1
    2312       78     1627 1
    2313      200     1986 1
    2314      334     2009 1
    2315      276     1075 1
    2316      305      583 1
    2317      961     1839 1
    2318      455     1443 1
    2319      191     2026 1
    2320     1025     1316 1
    2321     1765     1876 1
    2322     1583     1911 1
    2323     1592     1855 1
    2324      229     1501 1
    2325     1672     1813 1
    2326      141      578 1
    2327     1349     2069 1
    2328      759     1809 1
    2329     1034     1339 1
    2330      289     1935 1
    2331      785     1686 1
    2332      534      638 1
    2333     1107     1714 1
    2334      759     1850 1
    2335     1081     1164 1
    2336      356     1568 1
    2337       32      359 1
    2338      693      984 1
    2339     1591     1933 1
    2340     1501     1589 1
    2341      477     1903 1
    2342      156      698 1
    2343      418      455 1
    2344      173     1236 1
    2345      266     1229 1
    2346      277     1129 1
    2347      665     1569 1
    2348     1214     1818 1
    2349     1644     2007 1
    2350      216     1867 1
    2351     1150     1792 1
    2352       50       78 1
    2353       57     1917 1
    2354     1158     1739 1
    2355      681     1741 1
    2356      351     1702 1
    2357      581      653 1
    2358     1276     2106 1
    2359      152      807 1
    2360        7     1145 1
    2361      195      827 1
    2362     1000     1934 1
    2363      238     1035 1
    2364      152     1637 1
    2365       96      839 1
    2366      323     1412 1
    2367      680      702 1
    2368      440     1508 1
    2369      502     1592 1
    2370      146     1609 1
    2371     1918     1943 1
    2372      141      252 1
    2373      698     1307 1
    2374     1267     1271 1
    2375     1094     2008 1
    2376     1359     1550 1
    2377     1090     1134 1
    2378     1305     1593 1
    2379      135     1937 1
    2380      748     1072 1
    2381     1711     1773 1
    2382      474     2088 1
    2383      747     1477 1
    2384     1526     1568 1
    2385     1201     1747 1
    2386     1031     1386 1
    2387      707      798 1
    2388     1669     1729 1
    2389     1756     1960 1
    2390      714      929 1
    2391      108     1380 1
    2392      210     1403 1
    2393      131      690 1
    2394      877     2077 1
    2395     1412     1631 1
    2396      743     1973 1
    2397      400     1131 1
    2398      621     1327 1
    2399     1142     1277 1
    2400      195     1570 1
    2401      511     1300 1
    2402      334     1247 1
    2403      732     1774 1
    2404     1439     2005 1
    2405      528     1380 1
    2406     1606     1938 1
    2407     1801     1835 1
    2408     1473     1760 1
    2409      182      744 1
    2410      127      958 1
    2411      564     1878 1
    2412       23     1866 1
    2413      566     2048 1
    2414      818     1516 1
    2415     1217     2036 1
    2416      335     1524 1
    2417     1297     1361 1
    2418      262     1170 1
    2419      670     1170 1
    2420      493     1199 1
    2421       26     1013 1
    2422      607     1330 1
    2423      205     1919 1
    2424      805     1062 1
    2425      899     1700 1
    2426      162     1058 1
    2427     1695     2005 1
    2428      974     2082 1
    2429     1332     1948 1
    2430      333      983 1
    2431     1189     1201 1
    2432       66     1585 1
    2433      283     1117 1
    2434     1463     2004 1
    2435      538     1876 1
    2436      943     1378 1
    2437       18      947 1
    2438      881     1347 1
    2439       52     1384 1
    2440      828     2102 1
    2441      827     1285 1
    2442      241      768 1
    2443     1507     1951 1
    2444      699      866 1
    2445      723     1522 1
    2446      630     1833 1
    2447      908     1540 1
    2448      902     1550 1
    2449     1367     1633 1
    2450     1192     1898 1
    2451      211      996 1
    2452      316     1599 1
    2453      513     1676 1
    2454     1356     1937 1
    2455      835      983 1
    2456      630     1037 1
    2457      742     1493 1
    2458     1217     1562 1
    2459      773     2093 1
    2460     1014     1476 1
    2461      752     1895 1
    2462      222      505 1
    2463      405     1595 1
    2464      951     1756 1
    2465      720     1522 1
    2466       67      806 1
    2467      504     1733 1
    2468       11      198 1
    2469       19      342 1
    2470      184     1952 1
    2471      419      577 1
    2472      605     1103 1
    2473      492     1457 1
    2474      266     1254 1
    2475     1291     1861 1
    2476     1616     1786 1
    2477     1344     1608 1
    2478      426      637 1
    2479     1100     1394 1
    2480      789     2017 1
    2481      951     1077 1
    2482      349     1231 1
    2483     1138     1322 1
    2484     1581     1865 1
    2485       35      857 1
    2486      207      249 1
    2487      707     1238 1
    2488     1477     2084 1
    2489     1022     1746 1
    2490     1234     1480 1
    2491      638     1046 1
    2492     1083     1354 1
    2493       33     1658 1
    2494      794     1959 1
    2495      459     1201 1
    2496     1258     1785 1
    2497     1347     2010 1
    2498      506     1278 1
    2499     1609     2021 1
    2500     1048     1147 1
    2501      985     1920 1
    2502      623      796 1
    2503       81     1984 1
    2504      629      719 1
    2505      243     1204 1
    2506      344      474 1
    2507      941     1429 1
    2508      342     1074 1
    2509     1018     1105 1
    2510      131     1430 1
    2511       36      891 1
    2512      944     1440 1
    2513      819     1288 1
    2514      669     1643 1
    2515     1307     1909 1
    2516     1113     1203 1
    2517      174     1515 1
    2518      107     1807 1
    2519      689     1181 1
    2520      301     1020 1
    2521      872     1061 1
    2522     1047     1213 1
    2523        5     1848 1
    2524      586     1518 1
    2525      359     1195 1
    2526      300      752 1
    2527      314     1336 1
    2528      213     1373 1
    2529      117     1604 1
    2530      695     1107 1
    2531      441      789 1
    2532      619     1421 1
    2533     1380     1820 1
    2534      727     1922 1
    2535      282     1271 1
    2536      844     1747 1
    2537      454     1846 1
    2538      401      804 1
    2539      943     1085 1
    2540      867     1065 1
    2541     1120     1616 1
    2542      168     1671 1
    2543      756     1667 1
    2544      842     1822 1
    2545      420      596 1
    2546      454     1563 1
    2547      874     1924 1
    2548      228     1673 1
    2549      254     1543 1
    2550      118      924 1
    2551      658     1948 1
    2552      914     1740 1
    2553       51     2067 1
    2554      957     1202 1
    2555      740     1998 1
    2556      995     1764 1
    2557     1146     1341 1
    2558     1590     1823 1
    2559     1153     1876 1
    2560      137     1411 1
    2561      196      449 1
    2562      588     1960 1
    2563     1605     1935 1
    2564      133     1962 1
    2565      885     1915 1
    2566      134      547 1
    2567      423     1052 1
    2568      114     1363 1
    2569       95     1285 1
    2570      401      617 1
    2571      108      641 1
    2572      278     1777 1
    2573      505     1911 1
    2574      621     1167 1
    2575      864     1587 1
    2576       64     1966 1
    2577      666     1324 1
    2578       62     2064 1
    2579      938     1889 1
    2580     1348     1472 1
    2581      998     2094 1
    2582      409     1268 1
@<TRIPOS>SUBSTRUCTURE
       1 RES             1 RESIDUE    0 **** ROOT      0
