@<TRIPOS>MOLECULE
Generated by HOOMD
10000 1
NO_CHARGES
@<TRIPOS>ATOM
1 H -0.741758 -8.2949 9.31023 H 1 RES   0.0000
2 H -8.23874 6.50423 3.75765 H 1 RES   0.0000
3 H 1.02597 -6.13134 -1.42585 H 1 RES   0.0000
4 H -13.2492 13.2731 -2.51193 H 1 RES   0.0000
5 H -0.915275 -14.1336 -5.17493 H 1 RES   0.0000
6 H -11.651 -6.73123 -6.37195 H 1 RES   0.0000
7 H -4.98159 -0.288505 0.243683 H 1 RES   0.0000
8 H -1.97949 -14.6961 9.82589 H 1 RES   0.0000
9 H -5.59298 4.96614 7.19404 H 1 RES   0.0000
10 H -12.2627 -0.838242 12.5936 H 1 RES   0.0000
11 H 11.4139 -14.7627 -9.55565 H 1 RES   0.0000
12 H 2.1015 4.45205 0.245537 H 1 RES   0.0000
13 H -0.782047 13.7864 -12.7213 H 1 RES   0.0000
14 H -7.58737 12.4298 -10.24 H 1 RES   0.0000
15 H -4.96123 0.911056 7.31143 H 1 RES   0.0000
16 H -11.2206 -2.79905 -0.244054 H 1 RES   0.0000
17 H -13.048 -1.75076 8.16822 H 1 RES   0.0000
18 H -13.9022 -13.816 1.23937 H 1 RES   0.0000
19 H -12.3639 6.03539 -0.220084 H 1 RES   0.0000
20 H -12.3161 -8.07828 -7.91755 H 1 RES   0.0000
21 H -5.44112 8.253 14.3051 H 1 RES   0.0000
22 H 14.2112 -6.00049 -7.16867 H 1 RES   0.0000
23 H -6.78941 -12.8588 9.84643 H 1 RES   0.0000
24 H 6.7997 3.69438 11.8229 H 1 RES   0.0000
25 H 6.61895 -5.19995 -8.84253 H 1 RES   0.0000
26 H -11.9022 -6.54419 -8.5942 H 1 RES   0.0000
27 H 6.80614 -6.15958 -13.392 H 1 RES   0.0000
28 H 5.65324 -14.1997 5.51643 H 1 RES   0.0000
29 H -5.51675 6.61255 2.23555 H 1 RES   0.0000
30 H -1.14766 0.556554 7.87903 H 1 RES   0.0000
31 H 8.15353 -12.1015 -4.3111 H 1 RES   0.0000
32 H -3.88514 11.7035 -0.982235 H 1 RES   0.0000
33 H -10.5582 10.2947 -0.619671 H 1 RES   0.0000
34 H 13.2348 2.25104 0.91636 H 1 RES   0.0000
35 H 11.2918 11.1054 -1.35707 H 1 RES   0.0000
36 H 12.8722 13.9158 -8.0084 H 1 RES   0.0000
37 H 1.33043 -7.37326 -6.1013 H 1 RES   0.0000
38 H 0.185582 13.5641 14.0486 H 1 RES   0.0000
39 H 10.0408 -8.41961 -13.558 H 1 RES   0.0000
40 H 10.7072 11.7807 14.6572 H 1 RES   0.0000
41 H 2.81506 6.61184 7.20881 H 1 RES   0.0000
42 H 8.34067 -4.76013 10.7895 H 1 RES   0.0000
43 H -0.655046 -12.1571 -14.0525 H 1 RES   0.0000
44 H -9.06518 0.145971 5.71993 H 1 RES   0.0000
45 H 12.7802 13.1441 -6.77394 H 1 RES   0.0000
46 H -10.8891 -8.70434 8.08619 H 1 RES   0.0000
47 H 14.2396 -1.27965 -11.2175 H 1 RES   0.0000
48 H -1.0357 4.41868 -3.00269 H 1 RES   0.0000
49 H -4.36508 -7.82504 2.12978 H 1 RES   0.0000
50 H -14.5729 5.99644 -10.7825 H 1 RES   0.0000
51 H -9.41052 9.08095 8.43694 H 1 RES   0.0000
52 H -10.058 14.6414 0.00106793 H 1 RES   0.0000
53 H 5.42546 -3.79522 -6.57914 H 1 RES   0.0000
54 H 11.3633 -9.13341 -7.6836 H 1 RES   0.0000
55 H 8.82992 -13.5649 13.8369 H 1 RES   0.0000
56 H -2.46167 -3.39395 5.6639 H 1 RES   0.0000
57 H 0.430611 -8.38883 4.07418 H 1 RES   0.0000
58 H 5.71872 2.7708 0.723703 H 1 RES   0.0000
59 H -11.3777 -11.8073 4.10528 H 1 RES   0.0000
60 H 13.1254 13.8719 -1.94257 H 1 RES   0.0000
61 H 2.43228 3.18146 -9.7618 H 1 RES   0.0000
62 H 1.81207 -6.41885 -10.8638 H 1 RES   0.0000
63 H 7.05154 8.55204 -12.0878 H 1 RES   0.0000
64 H -11.259 -7.82156 4.68571 H 1 RES   0.0000
65 H -0.781128 -14.11 -0.596322 H 1 RES   0.0000
66 H -7.41265 -1.87409 6.10407 H 1 RES   0.0000
67 H 9.13314 -13.3959 0.0351313 H 1 RES   0.0000
68 H -3.18288 -10.586 -14.3812 H 1 RES   0.0000
69 H 13.758 -14.6988 -10.6826 H 1 RES   0.0000
70 H 11.2447 10.7859 -2.44157 H 1 RES   0.0000
71 H -9.83504 -7.55272 0.315897 H 1 RES   0.0000
72 H 5.71937 2.83571 -12.0906 H 1 RES   0.0000
73 H 3.98848 -4.32369 -7.67596 H 1 RES   0.0000
74 H 8.319 -3.72587 12.2056 H 1 RES   0.0000
75 H -14.5272 -10.2918 0.139786 H 1 RES   0.0000
76 H 3.47765 -13.8132 12.8548 H 1 RES   0.0000
77 H 9.13791 -4.85167 -10.1373 H 1 RES   0.0000
78 H 6.91419 10.4446 12.9768 H 1 RES   0.0000
79 H -12.164 -1.38641 2.60881 H 1 RES   0.0000
80 H 3.10585 -11.7114 12.716 H 1 RES   0.0000
81 H 3.2612 -3.58696 5.80718 H 1 RES   0.0000
82 H -4.91329 -5.10454 13.4229 H 1 RES   0.0000
83 H -14.4125 -13.5015 -4.11644 H 1 RES   0.0000
84 H -13.6617 -3.11652 -5.48618 H 1 RES   0.0000
85 H 11.6621 -3.33451 11.9766 H 1 RES   0.0000
86 H 8.2429 -7.02509 -13.0883 H 1 RES   0.0000
87 H -14.809 4.6883 -14.7898 H 1 RES   0.0000
88 H 5.43907 8.39994 -5.68177 H 1 RES   0.0000
89 H -10.6886 -9.74504 -2.85908 H 1 RES   0.0000
90 H 14.0145 10.952 -7.02809 H 1 RES   0.0000
91 H -7.55703 9.94286 7.31401 H 1 RES   0.0000
92 H 3.76555 -3.40712 -11.8434 H 1 RES   0.0000
93 H -14.571 -0.825925 -8.53601 H 1 RES   0.0000
94 H 0.154823 -12.239 -11.4679 H 1 RES   0.0000
95 H 9.14504 -3.23198 -13.0295 H 1 RES   0.0000
96 H 11.9977 -6.47031 6.40837 H 1 RES   0.0000
97 H -4.84327 5.75161 -7.9111 H 1 RES   0.0000
98 H 8.90251 12.4607 12.8682 H 1 RES   0.0000
99 H -3.4302 11.6708 -6.09168 H 1 RES   0.0000
100 H -3.47295 -8.88641 -9.1449 H 1 RES   0.0000
101 H -9.79835 14.6824 14.2308 H 1 RES   0.0000
102 H -0.9442 7.80056 5.81494 H 1 RES   0.0000
103 H -1.48626 13.5804 -14.5194 H 1 RES   0.0000
104 H -11.8645 -2.24691 14.1324 H 1 RES   0.0000
105 H 12.9299 14.242 -14.6748 H 1 RES   0.0000
106 H 0.393431 7.53623 13.9087 H 1 RES   0.0000
107 H 6.98225 -12.9651 10.5338 H 1 RES   0.0000
108 H 14.652 -11.5087 3.31804 H 1 RES   0.0000
109 H -12.8787 -10.6972 -8.46792 H 1 RES   0.0000
110 H 13.9862 11.2126 14.3525 H 1 RES   0.0000
111 H -9.84548 2.13529 -2.53584 H 1 RES   0.0000
112 H 10.0238 8.83273 9.16216 H 1 RES   0.0000
113 H 9.0357 14.1506 -10.0363 H 1 RES   0.0000
114 H -14.0831 10.8991 1.05134 H 1 RES   0.0000
115 H 1.97944 -8.13245 8.19744 H 1 RES   0.0000
116 H -6.82362 0.00440062 -0.428871 H 1 RES   0.0000
117 H 14.0088 7.7512 10.6472 H 1 RES   0.0000
118 H -11.3762 -7.29927 6.5324 H 1 RES   0.0000
119 H 3.78128 3.0843 -8.44129 H 1 RES   0.0000
120 H 3.01466 5.29641 3.15232 H 1 RES   0.0000
121 H -12.2484 13.9571 -3.04206 H 1 RES   0.0000
122 H 10.4436 12.4684 -3.5527 H 1 RES   0.0000
123 H -8.09306 4.31634 1.41657 H 1 RES   0.0000
124 H 12.0083 -13.1117 -2.26583 H 1 RES   0.0000
125 H 0.694693 0.625085 5.24922 H 1 RES   0.0000
126 H 13.322 -13.6303 0.454285 H 1 RES   0.0000
127 H 4.84317 2.81939 -3.15164 H 1 RES   0.0000
128 H 14.712 12.9027 -11.9038 H 1 RES   0.0000
129 H -10.6085 8.09278 -3.19864 H 1 RES   0.0000
130 H -6.35769 14.83 7.71188 H 1 RES   0.0000
131 H 5.92547 -6.91114 -3.91626 H 1 RES   0.0000
132 H -9.11042 8.00818 3.0805 H 1 RES   0.0000
133 H -7.57981 8.56051 6.47939 H 1 RES   0.0000
134 H 8.01035 -14.6374 9.68291 H 1 RES   0.0000
135 H 3.66035 -0.0441501 4.81792 H 1 RES   0.0000
136 H -14.0882 -11.6048 -12.1345 H 1 RES   0.0000
137 H 10.3092 -4.60438 -1.83007 H 1 RES   0.0000
138 H -14.452 -2.4785 -9.39013 H 1 RES   0.0000
139 H -4.75913 -12.5505 -6.09686 H 1 RES   0.0000
140 H -6.1692 -12.8176 1.07744 H 1 RES   0.0000
141 H -13.6449 -12.0558 14.4735 H 1 RES   0.0000
142 H 10.7108 4.54209 11.0178 H 1 RES   0.0000
143 H -10.7675 12.27 5.62048 H 1 RES   0.0000
144 H 9.89917 9.67952 12.2594 H 1 RES   0.0000
145 H 11.867 -13.5812 -12.6888 H 1 RES   0.0000
146 H 9.36248 -14.6426 -14.6259 H 1 RES   0.0000
147 H 13.6354 9.99767 9.9001 H 1 RES   0.0000
148 H 10.2786 -3.99061 -4.44394 H 1 RES   0.0000
149 H 4.44163 13.2715 12.2156 H 1 RES   0.0000
150 H -10.2601 8.6902 4.94228 H 1 RES   0.0000
151 H -9.57545 -2.33989 -14.5889 H 1 RES   0.0000
152 H -4.56899 5.57089 -10.7402 H 1 RES   0.0000
153 H -5.27243 1.05206 12.3122 H 1 RES   0.0000
154 H 7.43226 2.5508 -4.1206 H 1 RES   0.0000
155 H -10.0947 -8.69403 -8.4084 H 1 RES   0.0000
156 H -7.42454 -13.4832 -6.36796 H 1 RES   0.0000
157 H 5.60481 13.7797 -10.6931 H 1 RES   0.0000
158 H -0.758554 -1.13047 3.73269 H 1 RES   0.0000
159 H -11.6782 -0.201476 -11.5191 H 1 RES   0.0000
160 H 8.59878 -11.4112 0.294473 H 1 RES   0.0000
161 H 4.61265 7.00816 -12.1754 H 1 RES   0.0000
162 H -7.40333 -9.18929 10.5312 H 1 RES   0.0000
163 H 0.0837133 -8.57638 -1.30154 H 1 RES   0.0000
164 H -6.34923 -9.77306 9.1328 H 1 RES   0.0000
165 H 3.66179 0.10958 11.3292 H 1 RES   0.0000
166 H 13.2073 0.0239339 4.79883 H 1 RES   0.0000
167 H -8.99834 5.66323 4.48006 H 1 RES   0.0000
168 H -11.3018 -6.7476 12.3095 H 1 RES   0.0000
169 H -4.77533 -3.33403 -12.5373 H 1 RES   0.0000
170 H 12.1393 5.75385 14.2635 H 1 RES   0.0000
171 H -12.8993 -11.9605 -0.523115 H 1 RES   0.0000
172 H -4.19527 -5.89168 8.41248 H 1 RES   0.0000
173 H 5.41425 2.50371 10.0713 H 1 RES   0.0000
174 H 10.9896 5.63926 -12.5796 H 1 RES   0.0000
175 H -1.10638 7.89478 6.88165 H 1 RES   0.0000
176 H 8.60412 -4.19341 -12.8415 H 1 RES   0.0000
177 H 7.54243 11.1613 -13.3955 H 1 RES   0.0000
178 H -12.7254 1.68388 -0.653097 H 1 RES   0.0000
179 H -4.98761 -2.64776 -11.0371 H 1 RES   0.0000
180 H 4.06282 -2.52709 -6.25057 H 1 RES   0.0000
181 H -9.76532 5.86189 -11.9614 H 1 RES   0.0000
182 H -7.10823 -1.49035 14.6173 H 1 RES   0.0000
183 H 1.17301 6.04622 -1.10006 H 1 RES   0.0000
184 H 1.05864 2.12631 10.6675 H 1 RES   0.0000
185 H -14.455 -14.209 -3.25915 H 1 RES   0.0000
186 H 9.94734 -9.26002 6.60557 H 1 RES   0.0000
187 H 3.41847 2.60707 -11.7544 H 1 RES   0.0000
188 H -1.81915 8.12219 10.2704 H 1 RES   0.0000
189 H 2.47552 8.27941 -0.860062 H 1 RES   0.0000
190 H -7.9951 6.75175 8.45268 H 1 RES   0.0000
191 H -2.69824 -11.888 14.5995 H 1 RES   0.0000
192 H 7.7913 -9.07062 10.1182 H 1 RES   0.0000
193 H 10.8082 -5.35174 -6.53484 H 1 RES   0.0000
194 H 2.99933 3.56274 -5.28746 H 1 RES   0.0000
195 H -4.80782 -10.1656 -5.14693 H 1 RES   0.0000
196 H -13.8444 8.79254 9.57308 H 1 RES   0.0000
197 H -5.40704 -4.62534 1.02292 H 1 RES   0.0000
198 H 5.09236 -12.5389 -12.0905 H 1 RES   0.0000
199 H 4.27114 -8.71016 -4.88748 H 1 RES   0.0000
200 H -5.48335 9.48629 10.3381 H 1 RES   0.0000
201 H -6.92657 -14.5087 13.1327 H 1 RES   0.0000
202 H 1.17377 0.0206351 6.52077 H 1 RES   0.0000
203 H -1.14239 14.4409 -13.5168 H 1 RES   0.0000
204 H 0.275782 13.3291 9.23359 H 1 RES   0.0000
205 H -1.50386 5.50028 -2.38081 H 1 RES   0.0000
206 H 8.68803 -13.3908 -7.56497 H 1 RES   0.0000
207 H -12.7503 -10.1663 -4.78344 H 1 RES   0.0000
208 H -1.48733 8.66254 13.9008 H 1 RES   0.0000
209 H 13.1057 -11.2281 13.8275 H 1 RES   0.0000
210 H 5.85745 -6.14078 -6.98792 H 1 RES   0.0000
211 H 5.1615 -2.78541 -4.75195 H 1 RES   0.0000
212 H 14.4148 -1.27378 11.3546 H 1 RES   0.0000
213 H -2.46021 11.7837 7.44689 H 1 RES   0.0000
214 H 12.4896 3.39268 -4.06364 H 1 RES   0.0000
215 H -11.2321 0.460759 -9.23112 H 1 RES   0.0000
216 H 10.9619 -11.5856 1.99995 H 1 RES   0.0000
217 H -9.65574 3.62526 6.71529 H 1 RES   0.0000
218 H 3.05735 11.091 8.50198 H 1 RES   0.0000
219 H 5.23206 -5.71748 1.25887 H 1 RES   0.0000
220 H 5.20355 9.26722 6.16992 H 1 RES   0.0000
221 H 11.5112 -0.642551 -13.7068 H 1 RES   0.0000
222 H -8.90357 -0.993639 -3.28952 H 1 RES   0.0000
223 H -11.0737 1.85815 14.4922 H 1 RES   0.0000
224 H 4.68789 -11.3712 2.69215 H 1 RES   0.0000
225 H 0.654079 5.13858 1.783 H 1 RES   0.0000
226 H 12.9609 7.18698 -6.25431 H 1 RES   0.0000
227 H -9.24823 9.50726 -7.10126 H 1 RES   0.0000
228 H 14.7967 14.7177 7.02324 H 1 RES   0.0000
229 H -0.946235 -13.2901 5.65165 H 1 RES   0.0000
230 H -5.47185 -4.61166 7.38582 H 1 RES   0.0000
231 H -4.02989 1.86984 11.9463 H 1 RES   0.0000
232 H 14.3341 14.6141 10.9295 H 1 RES   0.0000
233 H 9.72982 6.05764 3.2882 H 1 RES   0.0000
234 H 3.84668 3.48839 -10.6744 H 1 RES   0.0000
235 H -8.23641 11.6614 14.4934 H 1 RES   0.0000
236 H -13.9309 4.47029 -3.67931 H 1 RES   0.0000
237 H 11.8688 7.44257 11.3271 H 1 RES   0.0000
238 H 14.4024 -3.42815 -4.70147 H 1 RES   0.0000
239 H 1.65743 -11.2123 5.802 H 1 RES   0.0000
240 H 9.96209 7.93702 3.31251 H 1 RES   0.0000
241 H 14.1239 0.76242 -9.25189 H 1 RES   0.0000
242 H -2.65169 -13.4298 -1.25711 H 1 RES   0.0000
243 H -8.52143 -11.304 8.91485 H 1 RES   0.0000
244 H 4.20235 0.692835 -1.42321 H 1 RES   0.0000
245 H -8.4214 -1.9406 -13.1193 H 1 RES   0.0000
246 H -10.4341 -13.1354 7.60676 H 1 RES   0.0000
247 H 12.1227 -1.04655 -4.85494 H 1 RES   0.0000
248 H -3.02069 -14.1394 -6.5875 H 1 RES   0.0000
249 H -1.9051 -3.21609 -0.750416 H 1 RES   0.0000
250 H -0.963568 11.2896 14.5575 H 1 RES   0.0000
251 H 3.23317 -13.9609 -1.40356 H 1 RES   0.0000
252 H 2.41521 -9.63326 -13.0224 H 1 RES   0.0000
253 H 2.89469 -9.34884 -11.488 H 1 RES   0.0000
254 H -5.57444 11.1157 -3.81091 H 1 RES   0.0000
255 H -0.333294 2.1588 7.56498 H 1 RES   0.0000
256 H -8.68412 12.6892 -11.5265 H 1 RES   0.0000
257 H -8.28513 13.1483 9.14618 H 1 RES   0.0000
258 H -3.76533 -9.32216 -3.08149 H 1 RES   0.0000
259 H 12.9706 9.74053 -2.88747 H 1 RES   0.0000
260 H 10.7163 3.64615 11.3885 H 1 RES   0.0000
261 H 12.7497 -4.93133 12.6302 H 1 RES   0.0000
262 H 11.5287 -2.04584 -13.479 H 1 RES   0.0000
263 H 0.730853 -5.42152 -4.03389 H 1 RES   0.0000
264 H 9.98516 1.48306 -9.74699 H 1 RES   0.0000
265 H 11.567 -14.6206 -2.59359 H 1 RES   0.0000
266 H 13.7531 9.4752 -13.5714 H 1 RES   0.0000
267 H 0.231683 -12.4562 -0.648202 H 1 RES   0.0000
268 H 4.52804 -5.24657 0.627094 H 1 RES   0.0000
269 H 0.848017 -6.57697 -6.88622 H 1 RES   0.0000
270 H 14.0428 14.5309 -14.2067 H 1 RES   0.0000
271 H -6.51893 5.99223 12.586 H 1 RES   0.0000
272 H 6.40623 7.23188 1.63187 H 1 RES   0.0000
273 H -13.0619 2.44326 9.99634 H 1 RES   0.0000
274 H -9.86072 -6.54309 4.28906 H 1 RES   0.0000
275 H 1.86689 13.5336 -4.31046 H 1 RES   0.0000
276 H 5.5951 -2.64591 -9.58798 H 1 RES   0.0000
277 H -5.34321 7.85816 -5.42128 H 1 RES   0.0000
278 H -9.31181 6.37435 12.9481 H 1 RES   0.0000
279 H -11.0662 -1.20925 12.2637 H 1 RES   0.0000
280 H -1.68872 -13.0355 -11.3957 H 1 RES   0.0000
281 H -9.52675 13.6536 -0.345371 H 1 RES   0.0000
282 H -12.1693 12.665 -14.1118 H 1 RES   0.0000
283 H -1.95405 7.13665 3.28624 H 1 RES   0.0000
284 H -10.5267 3.80559 -14.2375 H 1 RES   0.0000
285 H 3.46314 -3.73708 -12.8555 H 1 RES   0.0000
286 H -5.12619 1.98585 4.48769 H 1 RES   0.0000
287 H -4.02279 4.92082 -9.12904 H 1 RES   0.0000
288 H -1.8105 -4.45051 -8.50334 H 1 RES   0.0000
289 H -13.7998 -10.563 -11.0002 H 1 RES   0.0000
290 H -9.85219 -7.07066 7.42303 H 1 RES   0.0000
291 H 6.81209 -0.223715 -0.809609 H 1 RES   0.0000
292 H -8.07065 8.47566 -1.50729 H 1 RES   0.0000
293 H 11.9086 8.08746 3.5024 H 1 RES   0.0000
294 H 10.6605 0.349627 -2.63306 H 1 RES   0.0000
295 H -3.76614 8.0346 10.0947 H 1 RES   0.0000
296 H -7.09163 3.22386 -6.26451 H 1 RES   0.0000
297 H 8.97166 -6.64526 14.6278 H 1 RES   0.0000
298 H -12.4261 4.72357 7.82654 H 1 RES   0.0000
299 H -2.56981 14.4549 -13.4596 H 1 RES   0.0000
300 H -7.88611 13.5451 -7.24516 H 1 RES   0.0000
301 H 8.08235 6.24162 7.1451 H 1 RES   0.0000
302 H 11.5812 5.91048 -2.49343 H 1 RES   0.0000
303 H 3.47164 -12.8311 -0.890476 H 1 RES   0.0000
304 H 10.0649 5.50967 -7.10349 H 1 RES   0.0000
305 H 8.04733 4.65769 10.2496 H 1 RES   0.0000
306 H 8.66175 -7.12763 -14.1228 H 1 RES   0.0000
307 H -1.2159 -9.58638 -4.5902 H 1 RES   0.0000
308 H -7.44463 5.10765 2.62396 H 1 RES   0.0000
309 H 14.3159 12.9571 2.99421 H 1 RES   0.0000
310 H -5.50136 3.99843 9.37564 H 1 RES   0.0000
311 H -13.054 -8.62468 -3.45623 H 1 RES   0.0000
312 H -12.2254 -5.74928 13.4965 H 1 RES   0.0000
313 H 10.6553 -11.4894 11.0321 H 1 RES   0.0000
314 H 13.4021 6.43017 1.12192 H 1 RES   0.0000
315 H 6.83477 -8.70647 -4.66194 H 1 RES   0.0000
316 H -10.4732 -2.7052 4.43626 H 1 RES   0.0000
317 H -3.5128 -10.7225 1.13139 H 1 RES   0.0000
318 H 12.7056 0.285124 -11.2019 H 1 RES   0.0000
319 H -6.64822 4.89594 4.73124 H 1 RES   0.0000
320 H 6.108 -4.4566 5.84436 H 1 RES   0.0000
321 H -2.74349 3.45334 -1.25278 H 1 RES   0.0000
322 H -12.6796 -13.2389 -7.30179 H 1 RES   0.0000
323 H 4.7018 10.565 -6.00432 H 1 RES   0.0000
324 H 9.07323 0.409353 -9.64082 H 1 RES   0.0000
325 H -0.696453 13.5792 3.63136 H 1 RES   0.0000
326 H 9.2517 -12.2418 12.8267 H 1 RES   0.0000
327 H -13.0331 4.23434 10.1292 H 1 RES   0.0000
328 H -9.62616 13.9554 -13.3683 H 1 RES   0.0000
329 H 13.6576 8.78813 11.018 H 1 RES   0.0000
330 H -14.3545 -3.72388 -6.96185 H 1 RES   0.0000
331 H 12.0921 7.3007 0.46598 H 1 RES   0.0000
332 H 14.3688 11.9173 -12.4705 H 1 RES   0.0000
333 H 0.880685 4.52531 14.6027 H 1 RES   0.0000
334 H 14.0933 4.02027 6.13579 H 1 RES   0.0000
335 H -5.55901 12.6498 -0.866133 H 1 RES   0.0000
336 H -13.0336 0.0245091 13.1832 H 1 RES   0.0000
337 H 1.72636 0.457309 5.51423 H 1 RES   0.0000
338 H -7.62844 8.30893 13.58 H 1 RES   0.0000
339 H 11.4061 -5.7289 -10.885 H 1 RES   0.0000
340 H -3.24462 6.18501 -3.4696 H 1 RES   0.0000
341 H 1.66845 6.34894 -9.98111 H 1 RES   0.0000
342 H 2.12315 5.18969 -8.79792 H 1 RES   0.0000
343 H 4.25239 -4.20065 -5.23933 H 1 RES   0.0000
344 H -14.6343 1.52195 11.5664 H 1 RES   0.0000
345 H -7.02759 10.2465 -13.5336 H 1 RES   0.0000
346 H -1.85554 0.517633 -11.4022 H 1 RES   0.0000
347 H 6.1357 9.99035 12.5893 H 1 RES   0.0000
348 H -12.2999 -11.6105 -5.07597 H 1 RES   0.0000
349 H -4.36985 3.33296 14.4283 H 1 RES   0.0000
350 H -7.69944 12.6583 3.77388 H 1 RES   0.0000
351 H 3.17289 -5.45955 -6.64515 H 1 RES   0.0000
352 H -9.88417 -10.7038 6.90487 H 1 RES   0.0000
353 H -14.0652 -13.6505 5.29682 H 1 RES   0.0000
354 H -9.3092 -11.5748 4.66948 H 1 RES   0.0000
355 H 8.43482 0.987579 3.82939 H 1 RES   0.0000
356 H -13.5561 -13.5292 11.3427 H 1 RES   0.0000
357 H 13.6657 -7.77464 1.19422 H 1 RES   0.0000
358 H -0.265061 -14.825 4.54603 H 1 RES   0.0000
359 H 14.0159 2.30111 -8.92223 H 1 RES   0.0000
360 H -7.60103 14.1589 7.94754 H 1 RES   0.0000
361 H -6.69894 4.59547 7.87266 H 1 RES   0.0000
362 H -6.19243 -6.60722 -10.4215 H 1 RES   0.0000
363 H 7.79926 -9.92677 -13.226 H 1 RES   0.0000
364 H -3.89176 2.24902 -11.9895 H 1 RES   0.0000
365 H 12.4851 11.4978 -1.04858 H 1 RES   0.0000
366 H 0.0141584 13.1295 -14.6143 H 1 RES   0.0000
367 H 6.58612 3.90281 10.7736 H 1 RES   0.0000
368 H 0.325878 9.33178 2.98171 H 1 RES   0.0000
369 H 2.3976 -2.99454 3.71926 H 1 RES   0.0000
370 H -12.3132 -3.78018 -1.65678 H 1 RES   0.0000
371 H 10.8967 8.71778 -9.63724 H 1 RES   0.0000
372 H 8.25965 -7.26201 12.9885 H 1 RES   0.0000
373 H -7.03126 11.4587 4.83338 H 1 RES   0.0000
374 H 10.4018 -2.52497 -2.50205 H 1 RES   0.0000
375 H -8.28138 14.465 -5.03303 H 1 RES   0.0000
376 H -1.74684 -4.22721 6.97321 H 1 RES   0.0000
377 H 5.45365 3.02685 5.57375 H 1 RES   0.0000
378 H -7.5286 -2.75612 -2.35445 H 1 RES   0.0000
379 H -2.36097 -0.903082 -13.5158 H 1 RES   0.0000
380 H 2.45483 2.26421 4.33157 H 1 RES   0.0000
381 H 9.81543 4.17554 -12.9539 H 1 RES   0.0000
382 H 5.89963 12.4361 9.34519 H 1 RES   0.0000
383 H -0.0731354 10.36 13.0856 H 1 RES   0.0000
384 H -2.8723 -12.861 14.5875 H 1 RES   0.0000
385 H -10.0366 11.0925 11.9669 H 1 RES   0.0000
386 H -12.8081 -0.0359363 -2.12036 H 1 RES   0.0000
387 H -3.7815 1.72122 -0.80516 H 1 RES   0.0000
388 H 11.7411 9.26135 -5.46375 H 1 RES   0.0000
389 H 3.19925 -13.626 -9.11065 H 1 RES   0.0000
390 H -5.52216 -6.97917 0.0647855 H 1 RES   0.0000
391 H 8.11717 4.66648 13.5341 H 1 RES   0.0000
392 H -12.9235 -13.7619 4.2648 H 1 RES   0.0000
393 H -5.33745 -1.0608 -1.6124 H 1 RES   0.0000
394 H -4.56866 6.89428 10.3949 H 1 RES   0.0000
395 H 11.639 -8.74117 -3.5024 H 1 RES   0.0000
396 H -5.65604 8.57205 7.02518 H 1 RES   0.0000
397 H 12.6149 -7.53419 -5.79259 H 1 RES   0.0000
398 H 2.66606 14.6824 -6.41799 H 1 RES   0.0000
399 H -8.70255 11.6736 -10.6214 H 1 RES   0.0000
400 H -0.937392 2.06307 12.3018 H 1 RES   0.0000
401 H -5.15758 12.1144 2.86501 H 1 RES   0.0000
402 H 2.78072 -11.3132 -8.58889 H 1 RES   0.0000
403 H -11.9371 9.90736 4.2178 H 1 RES   0.0000
404 H -6.85005 12.028 2.48031 H 1 RES   0.0000
405 H 9.9188 -7.81682 -9.82856 H 1 RES   0.0000
406 H -9.1659 -5.89187 13.4582 H 1 RES   0.0000
407 H 9.90606 6.33753 6.60022 H 1 RES   0.0000
408 H 5.07392 6.28075 4.94108 H 1 RES   0.0000
409 H 8.75598 -3.21593 -9.91941 H 1 RES   0.0000
410 H 4.5697 -8.14277 13.8434 H 1 RES   0.0000
411 H -2.60193 2.79771 6.6164 H 1 RES   0.0000
412 H -2.85901 -7.48499 6.97783 H 1 RES   0.0000
413 H 14.5904 -10.0116 10.4884 H 1 RES   0.0000
414 H 14.0427 2.38367 -3.78117 H 1 RES   0.0000
415 H 10.0638 6.08922 -3.45929 H 1 RES   0.0000
416 H 4.51024 2.35882 -13.6967 H 1 RES   0.0000
417 H -1.15407 3.94771 3.51613 H 1 RES   0.0000
418 H -10.9989 -5.8811 -8.84308 H 1 RES   0.0000
419 H -13.6022 12.4393 4.66401 H 1 RES   0.0000
420 H 5.58733 -8.22302 3.89078 H 1 RES   0.0000
421 H -3.43891 -3.87952 -8.46779 H 1 RES   0.0000
422 H 1.26384 -9.01915 -8.0271 H 1 RES   0.0000
423 H 13.0403 2.48247 -9.52693 H 1 RES   0.0000
424 H 0.974589 -9.44785 -7.07085 H 1 RES   0.0000
425 H 5.61775 -2.42703 -3.80043 H 1 RES   0.0000
426 H 0.611012 9.22698 -9.30839 H 1 RES   0.0000
427 H -13.0229 1.55604 14.7891 H 1 RES   0.0000
428 H -0.495331 -4.29186 0.581081 H 1 RES   0.0000
429 H -14.4396 -12.9433 7.20322 H 1 RES   0.0000
430 H 1.37061 -12.7201 -9.22487 H 1 RES   0.0000
431 H -5.29194 -2.89527 7.10243 H 1 RES   0.0000
432 H -13.5197 -8.36119 10.9969 H 1 RES   0.0000
433 H -0.547121 -14.7189 -1.75732 H 1 RES   0.0000
434 H -11.6446 12.0223 14.8166 H 1 RES   0.0000
435 H 2.84757 -2.59821 14.1368 H 1 RES   0.0000
436 H -7.75591 -11.6574 -11.0476 H 1 RES   0.0000
437 H -3.6846 4.37091 -12.0416 H 1 RES   0.0000
438 H -8.86475 13.0908 3.70884 H 1 RES   0.0000
439 H -4.40134 10.4458 10.3958 H 1 RES   0.0000
440 H -13.2428 14.4266 -8.02808 H 1 RES   0.0000
441 H 8.5564 -5.20987 -14.7415 H 1 RES   0.0000
442 H -1.36073 -0.227637 -14.6838 H 1 RES   0.0000
443 H -7.73283 2.96765 -5.20775 H 1 RES   0.0000
444 H 3.29219 -7.41789 5.78018 H 1 RES   0.0000
445 H -9.80025 -0.608461 8.59688 H 1 RES   0.0000
446 H -6.63776 -6.68967 -11.7284 H 1 RES   0.0000
447 H 9.53973 -4.61842 12.6656 H 1 RES   0.0000
448 H -12.062 12.5252 -11.4829 H 1 RES   0.0000
449 H 13.1732 8.78741 -14.0905 H 1 RES   0.0000
450 H 2.79285 -1.90805 3.15635 H 1 RES   0.0000
451 H 3.61184 8.81971 7.61243 H 1 RES   0.0000
452 H -12.3552 -14.7332 12.8508 H 1 RES   0.0000
453 H 12.6048 -10.4224 -6.67691 H 1 RES   0.0000
454 H -8.26975 -5.09283 -9.47016 H 1 RES   0.0000
455 H 9.82768 3.46097 -8.61912 H 1 RES   0.0000
456 H 4.53939 13.7261 1.15998 H 1 RES   0.0000
457 H -11.4823 10.7009 -3.54643 H 1 RES   0.0000
458 H 10.4025 -7.45149 -10.8421 H 1 RES   0.0000
459 H -6.29923 4.6643 9.02523 H 1 RES   0.0000
460 H 11.0313 2.06635 -11.5236 H 1 RES   0.0000
461 H 4.45086 -10.9088 -11.2027 H 1 RES   0.0000
462 H -8.57694 9.78017 -0.50303 H 1 RES   0.0000
463 H -5.14513 -1.5819 -6.0251 H 1 RES   0.0000
464 H -4.18318 -0.715115 -8.24299 H 1 RES   0.0000
465 H 10.6743 -2.54347 -0.518336 H 1 RES   0.0000
466 H 2.19819 0.533813 -9.01651 H 1 RES   0.0000
467 H -11.8064 -12.6689 -10.1468 H 1 RES   0.0000
468 H 11.8195 13.9492 12.5608 H 1 RES   0.0000
469 H 6.13007 4.34458 -6.84468 H 1 RES   0.0000
470 H -14.0425 1.55348 -13.9326 H 1 RES   0.0000
471 H 12.7346 -14.5295 -10.8653 H 1 RES   0.0000
472 H 14.4452 -0.243814 -0.0558107 H 1 RES   0.0000
473 H -7.0839 2.62049 4.58561 H 1 RES   0.0000
474 H -13.136 -13.6819 -6.28355 H 1 RES   0.0000
475 H -3.66705 -0.416047 -6.99839 H 1 RES   0.0000
476 H 2.51896 -0.823068 -4.24615 H 1 RES   0.0000
477 H 11.0102 -13.521 -11.8744 H 1 RES   0.0000
478 H -4.05408 -1.8608 1.2255 H 1 RES   0.0000
479 H 12.9899 -13.3799 -9.65975 H 1 RES   0.0000
480 H 10.3037 -0.449713 13.0897 H 1 RES   0.0000
481 H 6.10628 -0.391728 1.94657 H 1 RES   0.0000
482 H -1.46904 -0.727459 -12.2734 H 1 RES   0.0000
483 H -1.02275 6.49934 -11.5506 H 1 RES   0.0000
484 H 7.89365 -6.0325 1.22362 H 1 RES   0.0000
485 H -7.91879 14.782 5.89334 H 1 RES   0.0000
486 H -3.55385 -9.35342 -1.33965 H 1 RES   0.0000
487 H 12.3589 4.11498 -14.7739 H 1 RES   0.0000
488 H 3.92162 4.25544 -1.48463 H 1 RES   0.0000
489 H 6.48175 4.69775 1.55565 H 1 RES   0.0000
490 H 4.92497 13.4869 10.9709 H 1 RES   0.0000
491 H 11.8035 11.9838 -10.4816 H 1 RES   0.0000
492 H -2.94598 12.1525 -1.56421 H 1 RES   0.0000
493 H 3.15202 1.05245 -1.27948 H 1 RES   0.0000
494 H -14.7772 13.2044 10.4104 H 1 RES   0.0000
495 H 11.4081 13.6623 -4.94251 H 1 RES   0.0000
496 H -13.7899 7.02823 -1.55861 H 1 RES   0.0000
497 H 4.74489 0.62933 11.4282 H 1 RES   0.0000
498 H -11.9767 -1.63521 6.45373 H 1 RES   0.0000
499 H 12.1788 -12.6263 3.37295 H 1 RES   0.0000
500 H -13.9503 -6.74532 -4.16372 H 1 RES   0.0000
501 H -3.94388 -7.59103 9.08626 H 1 RES   0.0000
502 H -3.14093 3.59126 -4.44834 H 1 RES   0.0000
503 H 5.13328 -13.8968 -2.06053 H 1 RES   0.0000
504 H 11.6345 -13.7512 -10.4576 H 1 RES   0.0000
505 H -3.92489 12.7128 -12.8992 H 1 RES   0.0000
506 H 8.52952 6.8326 -9.0714 H 1 RES   0.0000
507 H 8.09059 -3.28497 -13.2128 H 1 RES   0.0000
508 H -12.6958 -2.19396 -14.486 H 1 RES   0.0000
509 H -8.99836 -5.7869 6.89121 H 1 RES   0.0000
510 H -9.1259 13.6732 12.5701 H 1 RES   0.0000
511 H -13.7233 -8.83168 -6.42445 H 1 RES   0.0000
512 H 1.11241 10.201 13.0425 H 1 RES   0.0000
513 H 0.183915 5.98852 4.26959 H 1 RES   0.0000
514 H 13.3748 -5.95735 -4.49944 H 1 RES   0.0000
515 H -11.4675 7.98357 -14.5673 H 1 RES   0.0000
516 H 5.54123 -0.282138 -11.9829 H 1 RES   0.0000
517 H -11.7871 -5.84649 -13.7603 H 1 RES   0.0000
518 H 8.19063 -6.10956 -14.4568 H 1 RES   0.0000
519 H -9.85105 -8.76232 -7.44813 H 1 RES   0.0000
520 H 14.4124 -12.6342 8.13157 H 1 RES   0.0000
521 H 0.426712 13.2702 -6.12974 H 1 RES   0.0000
522 H -7.21022 10.6655 12.1528 H 1 RES   0.0000
523 H 7.73798 7.65604 -6.96329 H 1 RES   0.0000
524 H -12.3623 -5.80357 -7.85086 H 1 RES   0.0000
525 H -7.47815 14.1572 9.02453 H 1 RES   0.0000
526 H 1.97669 -6.07455 2.61435 H 1 RES   0.0000
527 H 6.14575 -5.73545 0.735637 H 1 RES   0.0000
528 H 2.91756 -8.41936 8.49546 H 1 RES   0.0000
529 H 1.78882 10.3944 -12.1209 H 1 RES   0.0000
530 H -1.573 1.65743 -5.74148 H 1 RES   0.0000
531 H -12.1633 -9.1102 2.56965 H 1 RES   0.0000
532 H 0.729389 -13.368 -0.0286868 H 1 RES   0.0000
533 H 6.33599 -5.5831 -11.4634 H 1 RES   0.0000
534 H 5.73081 13.2493 -8.79095 H 1 RES   0.0000
535 H 5.40562 -1.06167 -7.83223 H 1 RES   0.0000
536 H 12.2262 -2.12199 -9.40864 H 1 RES   0.0000
537 H 3.13137 -4.88345 4.32197 H 1 RES   0.0000
538 H -5.89519 -2.62095 -13.3932 H 1 RES   0.0000
539 H 0.26199 9.74439 13.8035 H 1 RES   0.0000
540 H -5.38902 13.4891 11.1573 H 1 RES   0.0000
541 H -5.57234 -13.1534 -12.6102 H 1 RES   0.0000
542 H -12.1429 -10.3412 6.40183 H 1 RES   0.0000
543 H -7.59947 -14.7979 -6.90061 H 1 RES   0.0000
544 H -0.764574 9.0645 -2.20822 H 1 RES   0.0000
545 H -12.8111 6.20933 -11.4702 H 1 RES   0.0000
546 H -7.28244 9.51791 14.5839 H 1 RES   0.0000
547 H 13.2993 -13.5324 1.57744 H 1 RES   0.0000
548 H 1.5668 6.04745 1.89926 H 1 RES   0.0000
549 H 8.18617 -1.38612 -2.79646 H 1 RES   0.0000
550 H -12.7477 -10.5515 -13.5558 H 1 RES   0.0000
551 H 12.1158 -13.6976 1.67815 H 1 RES   0.0000
552 H -6.69025 -1.22481 -14.0375 H 1 RES   0.0000
553 H 8.60853 -10.0333 -12.4422 H 1 RES   0.0000
554 H -9.83201 -6.08079 -5.43346 H 1 RES   0.0000
555 H -10.5843 2.07764 8.80713 H 1 RES   0.0000
556 H 5.62724 5.66765 5.51397 H 1 RES   0.0000
557 H -3.15145 -1.80969 -2.38301 H 1 RES   0.0000
558 H -12.5406 6.97406 14.3506 H 1 RES   0.0000
559 H -2.86633 10.0308 7.01211 H 1 RES   0.0000
560 H -11.9192 -2.3512 -13.7689 H 1 RES   0.0000
561 H -9.7634 9.37971 13.1869 H 1 RES   0.0000
562 H -2.42143 13.1147 -12.4263 H 1 RES   0.0000
563 H -4.42794 -14.2065 -3.50567 H 1 RES   0.0000
564 H 10.3285 -13.0906 0.0216987 H 1 RES   0.0000
565 H -9.80215 7.40837 8.22521 H 1 RES   0.0000
566 H 10.9095 2.17045 4.63918 H 1 RES   0.0000
567 H -3.06603 -0.0921292 9.37696 H 1 RES   0.0000
568 H 11.5548 4.24089 -13.5421 H 1 RES   0.0000
569 H 10.4209 11.3662 -2.01303 H 1 RES   0.0000
570 H -6.0366 -7.86679 -5.39905 H 1 RES   0.0000
571 H 7.56223 -13.7037 -4.0259 H 1 RES   0.0000
572 H -9.26477 7.8667 -4.90262 H 1 RES   0.0000
573 H 13.3761 8.41865 12.8837 H 1 RES   0.0000
574 H -1.41762 -5.02275 -7.13649 H 1 RES   0.0000
575 H -1.11217 10.0798 8.53567 H 1 RES   0.0000
576 H 0.691797 -13.9203 13.5988 H 1 RES   0.0000
577 H 7.66715 -14.3867 12.8282 H 1 RES   0.0000
578 H 0.256515 -10.0959 -9.23034 H 1 RES   0.0000
579 H 10.0419 5.30454 -1.3049 H 1 RES   0.0000
580 H 12.9865 -13.1593 5.87222 H 1 RES   0.0000
581 H 13.4868 -7.4435 -4.24009 H 1 RES   0.0000
582 H 6.87316 -5.2643 -2.49751 H 1 RES   0.0000
583 H 2.19837 13.5612 -11.6757 H 1 RES   0.0000
584 H -2.49593 -8.00208 -13.4928 H 1 RES   0.0000
585 H -10.7156 9.68946 -14.6139 H 1 RES   0.0000
586 H -7.47061 -3.78415 -14.4768 H 1 RES   0.0000
587 H 9.23341 -14.7599 -13.5293 H 1 RES   0.0000
588 H 3.71043 5.06034 10.9717 H 1 RES   0.0000
589 H 13.0873 7.32923 -11.6966 H 1 RES   0.0000
590 H -4.55324 -11.8857 10.7611 H 1 RES   0.0000
591 H 5.3326 -12.5288 -11.102 H 1 RES   0.0000
592 H -12.8797 4.42736 14.6586 H 1 RES   0.0000
593 H 4.92005 10.3089 10.5674 H 1 RES   0.0000
594 H 0.685504 10.6251 -3.88436 H 1 RES   0.0000
595 H -9.59786 13.2526 -12.4584 H 1 RES   0.0000
596 H 1.68262 13.9654 -7.7851 H 1 RES   0.0000
597 H -3.19915 -1.69809 -9.61218 H 1 RES   0.0000
598 H 12.4855 -6.68709 8.36049 H 1 RES   0.0000
599 H 1.53971 11.8801 -1.93799 H 1 RES   0.0000
600 H 5.01792 10.3212 9.57308 H 1 RES   0.0000
601 H -4.64939 0.850625 11.4113 H 1 RES   0.0000
602 H -7.09879 13.9054 -6.74534 H 1 RES   0.0000
603 H -13.8082 6.39852 11.8695 H 1 RES   0.0000
604 H -6.79519 12.6456 -5.23225 H 1 RES   0.0000
605 H 11.9907 9.41741 -4.51683 H 1 RES   0.0000
606 H -14.1812 8.34355 7.42489 H 1 RES   0.0000
607 H 2.71211 11.1124 -1.82136 H 1 RES   0.0000
608 H 8.50811 0.650449 -4.64409 H 1 RES   0.0000
609 H 6.39738 7.6194 9.93675 H 1 RES   0.0000
610 H 6.23876 3.78998 -13.6011 H 1 RES   0.0000
611 H 14.6241 5.59445 -6.71613 H 1 RES   0.0000
612 H -9.20342 7.22635 -13.3732 H 1 RES   0.0000
613 H -6.22318 3.35608 4.21425 H 1 RES   0.0000
614 H -7.186 0.00414665 -7.12587 H 1 RES   0.0000
615 H -12.4339 12.7158 -7.44574 H 1 RES   0.0000
616 H -0.649869 5.92379 -2.13208 H 1 RES   0.0000
617 H -2.36351 3.8351 5.93823 H 1 RES   0.0000
618 H -0.25937 13.7652 13.0541 H 1 RES   0.0000
619 H -11.4038 -8.13624 -6.16979 H 1 RES   0.0000
620 H -2.47077 -10.2008 -4.29018 H 1 RES   0.0000
621 H -6.51088 -11.1611 -10.9746 H 1 RES   0.0000
622 H -1.87331 6.08966 -9.03015 H 1 RES   0.0000
623 H 7.24739 -0.233446 1.09773 H 1 RES   0.0000
624 H 9.92077 5.3989 -14.4521 H 1 RES   0.0000
625 H 11.349 6.558 11.5858 H 1 RES   0.0000
626 H -12.271 10.5704 -13.0637 H 1 RES   0.0000
627 H -12.5773 12.4093 8.13855 H 1 RES   0.0000
628 H -2.51029 9.97795 2.78253 H 1 RES   0.0000
629 H 6.63865 2.5548 5.72151 H 1 RES   0.0000
630 H 0.939763 10.7281 6.15572 H 1 RES   0.0000
631 H -14.8405 7.15738 6.46624 H 1 RES   0.0000
632 H -2.76238 -2.51009 -7.37342 H 1 RES   0.0000
633 H -7.51239 -1.66276 -10.7828 H 1 RES   0.0000
634 H 11.0574 -12.6526 -4.23924 H 1 RES   0.0000
635 H 14.1849 13.9773 -9.60806 H 1 RES   0.0000
636 H 13.972 2.62739 -7.01054 H 1 RES   0.0000
637 H -3.2938 -2.79625 13.6957 H 1 RES   0.0000
638 H -2.48483 5.24283 -11.4772 H 1 RES   0.0000
639 H 2.75292 -6.88356 14.7475 H 1 RES   0.0000
640 H -11.5046 11.9442 -7.95343 H 1 RES   0.0000
641 H -11.8909 -5.56837 4.70868 H 1 RES   0.0000
642 H -5.29444 10.1659 -2.51891 H 1 RES   0.0000
643 H -2.48624 -11.6269 -13.4335 H 1 RES   0.0000
644 H 9.76408 -2.36743 -7.34991 H 1 RES   0.0000
645 H 3.3011 14.2011 11.6415 H 1 RES   0.0000
646 H 5.55594 12.8839 6.97741 H 1 RES   0.0000
647 H 14.5166 4.97381 -4.69177 H 1 RES   0.0000
648 H -2.69823 7.95986 -7.04219 H 1 RES   0.0000
649 H 12.1249 5.61029 4.3567 H 1 RES   0.0000
650 H -2.49543 4.08289 -8.5898 H 1 RES   0.0000
651 H 1.14566 0.891772 12.9074 H 1 RES   0.0000
652 H 6.71197 -4.43555 3.05445 H 1 RES   0.0000
653 H -8.00708 0.136031 -2.13573 H 1 RES   0.0000
654 H 9.94254 8.24294 13.1398 H 1 RES   0.0000
655 H -9.38659 -4.39701 -9.60224 H 1 RES   0.0000
656 H -7.90438 -13.5711 0.32941 H 1 RES   0.0000
657 H 12.3838 1.71432 -2.6247 H 1 RES   0.0000
658 H 4.18159 10.9008 4.88259 H 1 RES   0.0000
659 H -6.71249 -2.01344 -7.23945 H 1 RES   0.0000
660 H -13.3586 10.5396 12.4423 H 1 RES   0.0000
661 H 4.44017 0.255665 14.5141 H 1 RES   0.0000
662 H 1.9364 7.59337 10.773 H 1 RES   0.0000
663 H -9.85116 -8.81677 8.98506 H 1 RES   0.0000
664 H -11.9715 5.9957 -8.67113 H 1 RES   0.0000
665 H 9.16124 -0.599434 -6.97026 H 1 RES   0.0000
666 H -8.37953 -12.6888 -7.27165 H 1 RES   0.0000
667 H -10.6279 -13.3818 13.2291 H 1 RES   0.0000
668 H -7.74013 13.0512 5.13768 H 1 RES   0.0000
669 H 12.2175 -5.01735 -3.15663 H 1 RES   0.0000
670 H -7.51297 13.5758 -5.41712 H 1 RES   0.0000
671 H -0.234499 9.74032 -6.58879 H 1 RES   0.0000
672 H -1.51056 -0.835458 -4.28186 H 1 RES   0.0000
673 H 4.5255 -12.4031 -2.93577 H 1 RES   0.0000
674 H -4.15684 -8.62915 -7.76611 H 1 RES   0.0000
675 H -10.0192 -4.38552 13.5843 H 1 RES   0.0000
676 H 4.21867 -0.649258 5.59861 H 1 RES   0.0000
677 H -1.09365 -14.0271 -7.55416 H 1 RES   0.0000
678 H -12.9462 5.18251 6.48749 H 1 RES   0.0000
679 H 4.73928 -7.13149 4.10524 H 1 RES   0.0000
680 H -5.26361 2.19045 -5.12802 H 1 RES   0.0000
681 H -6.75318 6.37847 -6.01209 H 1 RES   0.0000
682 H 1.37258 14.6654 -10.8415 H 1 RES   0.0000
683 H 12.807 3.46312 -11.5129 H 1 RES   0.0000
684 H 6.27579 8.32095 7.66476 H 1 RES   0.0000
685 H -2.94647 -1.54013 11.2236 H 1 RES   0.0000
686 H -9.12715 -6.10345 5.37278 H 1 RES   0.0000
687 H -3.19824 -7.32825 -7.18951 H 1 RES   0.0000
688 H 0.608458 12.2166 -8.3356 H 1 RES   0.0000
689 H -3.11708 -5.69837 0.914192 H 1 RES   0.0000
690 H 6.05143 7.20987 -4.36666 H 1 RES   0.0000
691 H -13.7371 -14.594 3.80874 H 1 RES   0.0000
692 H -11.5118 1.96909 11.5582 H 1 RES   0.0000
693 H 9.67399 -2.3608 -0.719607 H 1 RES   0.0000
694 H 4.11515 6.35116 13.9776 H 1 RES   0.0000
695 H -0.888793 12.7625 8.93285 H 1 RES   0.0000
696 H 5.29099 -11.3753 12.825 H 1 RES   0.0000
697 H -5.10197 -10.629 -7.68977 H 1 RES   0.0000
698 H -8.53187 10.1746 -4.52666 H 1 RES   0.0000
699 H 2.80527 0.910455 12.7559 H 1 RES   0.0000
700 H 12.3157 -9.88025 -10.0434 H 1 RES   0.0000
701 H -0.292211 14.7513 2.49543 H 1 RES   0.0000
702 H 14.6822 -0.632811 -2.12705 H 1 RES   0.0000
703 H -13.2081 2.67268 8.4995 H 1 RES   0.0000
704 H 4.7378 -8.46259 -12.3261 H 1 RES   0.0000
705 H -9.69288 9.64493 9.87601 H 1 RES   0.0000
706 H -1.35339 8.4473 3.49464 H 1 RES   0.0000
707 H -3.27502 2.13685 -13.2261 H 1 RES   0.0000
708 H 1.06388 7.11429 10.5633 H 1 RES   0.0000
709 H -11.6653 -4.34894 -9.10823 H 1 RES   0.0000
710 H -14.7226 -2.86454 -4.05679 H 1 RES   0.0000
711 H -14.2095 3.64922 -5.12223 H 1 RES   0.0000
712 H 1.78501 1.97688 13.4921 H 1 RES   0.0000
713 H 14.2135 3.65355 -8.84 H 1 RES   0.0000
714 H -4.30473 -0.624564 14.1356 H 1 RES   0.0000
715 H -3.53402 0.700074 -2.63946 H 1 RES   0.0000
716 H -8.79939 -4.52849 -5.57811 H 1 RES   0.0000
717 H -7.76309 -5.8138 -14.0959 H 1 RES   0.0000
718 H -4.14921 12.1026 -6.81681 H 1 RES   0.0000
719 H 7.51352 -1.50488 -11.2897 H 1 RES   0.0000
720 H 10.6818 -9.37598 7.55732 H 1 RES   0.0000
721 H 4.19097 -8.91546 4.1817 H 1 RES   0.0000
722 H -7.29254 -7.15475 -10.9879 H 1 RES   0.0000
723 H -7.50693 8.44411 11.3798 H 1 RES   0.0000
724 H -5.68516 2.70542 10.694 H 1 RES   0.0000
725 H 11.1133 5.53288 -4.87903 H 1 RES   0.0000
726 H -3.85877 14.5091 -4.36698 H 1 RES   0.0000
727 H 12.8469 5.76484 -2.65673 H 1 RES   0.0000
728 H 4.78085 -11.7699 -6.00096 H 1 RES   0.0000
729 H 5.92264 -4.42524 -9.33304 H 1 RES   0.0000
730 H -9.54255 -14.3037 10.2474 H 1 RES   0.0000
731 H 6.98466 1.55947 6.44465 H 1 RES   0.0000
732 H -5.53557 9.72687 -9.37696 H 1 RES   0.0000
733 H 14.6047 4.25327 -13.4644 H 1 RES   0.0000
734 H 12.9937 0.13132 -12.175 H 1 RES   0.0000
735 H -5.23843 12.0896 0.0577345 H 1 RES   0.0000
736 H 11.5197 -13.5814 -5.06335 H 1 RES   0.0000
737 H 13.7668 10.9361 -0.292583 H 1 RES   0.0000
738 H -13.1244 12.474 -1.72729 H 1 RES   0.0000
739 H -2.69666 -13.1033 13.3764 H 1 RES   0.0000
740 H 7.35059 7.37852 10.0545 H 1 RES   0.0000
741 H -1.73081 -13.707 -6.29512 H 1 RES   0.0000
742 H -4.73278 11.1271 -3.14992 H 1 RES   0.0000
743 H -3.86483 -11.9878 5.8555 H 1 RES   0.0000
744 H 14.3968 -3.49719 0.0222744 H 1 RES   0.0000
745 H 9.23965 -9.43156 -9.87492 H 1 RES   0.0000
746 H -6.06028 -4.88717 -12.0414 H 1 RES   0.0000
747 H 8.70423 -7.47286 -6.34406 H 1 RES   0.0000
748 H 7.41443 -3.11097 12.8152 H 1 RES   0.0000
749 H -5.20126 -7.28666 7.81623 H 1 RES   0.0000
750 H -7.72495 1.71356 -10.3689 H 1 RES   0.0000
751 H 13.5665 12.8616 -0.0402114 H 1 RES   0.0000
752 H 7.55877 -6.80539 9.05434 H 1 RES   0.0000
753 H -13.4396 3.09481 11.4138 H 1 RES   0.0000
754 H -14.6519 -2.33891 -1.88269 H 1 RES   0.0000
755 H 3.12537 10.0377 5.65632 H 1 RES   0.0000
756 H 14.2616 5.84723 -2.07753 H 1 RES   0.0000
757 H -9.95774 6.27988 11.128 H 1 RES   0.0000
758 H -6.27787 0.00798423 4.95341 H 1 RES   0.0000
759 H -11.3781 -10.4335 -0.545798 H 1 RES   0.0000
760 H 8.74208 0.155498 -10.8801 H 1 RES   0.0000
761 H -4.61206 -3.16746 -3.3033 H 1 RES   0.0000
762 H -3.70555 10.4888 11.4414 H 1 RES   0.0000
763 H 10.6671 13.1017 1.5251 H 1 RES   0.0000
764 H 8.47538 -10.838 -3.64453 H 1 RES   0.0000
765 H 13.691 -3.52723 4.1302 H 1 RES   0.0000
766 H 7.78333 -7.75067 0.530859 H 1 RES   0.0000
767 H -4.9815 6.26484 -12.326 H 1 RES   0.0000
768 H -3.6066 -6.65979 -1.43319 H 1 RES   0.0000
769 H 12.6644 13.2647 0.677723 H 1 RES   0.0000
770 H -4.88052 1.09878 -1.58791 H 1 RES   0.0000
771 H 5.26997 -14.5799 -11.2556 H 1 RES   0.0000
772 H 5.67476 3.49797 10.0702 H 1 RES   0.0000
773 H -10.5808 11.7414 1.80707 H 1 RES   0.0000
774 H 2.37844 8.20249 -11.8575 H 1 RES   0.0000
775 H -13.6217 0.302916 -8.59201 H 1 RES   0.0000
776 H 7.05976 2.53573 10.8395 H 1 RES   0.0000
777 H 9.15967 -12.8646 -11.4619 H 1 RES   0.0000
778 H -11.965 -0.495646 -13.7879 H 1 RES   0.0000
779 H 13.3927 -6.71606 -9.98435 H 1 RES   0.0000
780 H -0.838609 4.52582 -0.152475 H 1 RES   0.0000
781 H 6.24349 13.8082 -1.90336 H 1 RES   0.0000
782 H 1.86483 11.7396 -13.6503 H 1 RES   0.0000
783 H -9.48934 4.78426 1.08428 H 1 RES   0.0000
784 H 5.06141 -11.2864 3.62591 H 1 RES   0.0000
785 H -12.5172 -6.29391 11.6698 H 1 RES   0.0000
786 H -7.41586 11.701 -11.7921 H 1 RES   0.0000
787 H -9.79548 -3.02366 -13.1351 H 1 RES   0.0000
788 H -9.73498 0.604029 -5.329 H 1 RES   0.0000
789 H 3.60739 -14.5006 0.869618 H 1 RES   0.0000
790 H 3.26066 9.30019 12.5171 H 1 RES   0.0000
791 H 11.7883 -0.0214336 5.08462 H 1 RES   0.0000
792 H 8.64608 -2.40462 -7.42458 H 1 RES   0.0000
793 H -12.0418 -1.12114 14.7156 H 1 RES   0.0000
794 H 9.94373 -0.476616 -11.3941 H 1 RES   0.0000
795 H 0.720303 13.695 10.9566 H 1 RES   0.0000
796 H 4.7038 -9.60746 -4.49743 H 1 RES   0.0000
797 H 8.35178 2.8247 13.0499 H 1 RES   0.0000
798 H -1.68537 -2.12061 5.41524 H 1 RES   0.0000
799 H 3.24961 11.8814 4.14054 H 1 RES   0.0000
800 H -9.78573 -12.9426 8.79322 H 1 RES   0.0000
801 H -7.54892 1.50034 -9.10135 H 1 RES   0.0000
802 H -3.61933 12.9554 0.429183 H 1 RES   0.0000
803 H -12.6498 12.0566 4.90357 H 1 RES   0.0000
804 H 13.3352 -8.85715 -4.14321 H 1 RES   0.0000
805 H 13.9684 14.3237 2.1541 H 1 RES   0.0000
806 H 6.7269 -5.54904 -6.86262 H 1 RES   0.0000
807 H 13.1364 -0.314012 -9.83525 H 1 RES   0.0000
808 H -6.56218 -12.5665 -8.5465 H 1 RES   0.0000
809 H 1.17089 -12.5694 10.228 H 1 RES   0.0000
810 H -14.5441 -9.69006 -4.61262 H 1 RES   0.0000
811 H 2.40498 -1.47768 -3.44993 H 1 RES   0.0000
812 H 13.3073 2.26602 -14.5494 H 1 RES   0.0000
813 H 4.71979 4.9176 10.9731 H 1 RES   0.0000
814 H 5.6716 -6.0348 5.89999 H 1 RES   0.0000
815 H 10.2109 10.6983 14.2384 H 1 RES   0.0000
816 H 1.99409 10.2216 11.4673 H 1 RES   0.0000
817 H 13.0185 0.694991 7.82988 H 1 RES   0.0000
818 H 14.1931 8.18926 -13.6476 H 1 RES   0.0000
819 H 5.25258 11.6414 -6.37497 H 1 RES   0.0000
820 H -12.157 -4.25537 -12.4729 H 1 RES   0.0000
821 H 1.58173 11.5131 13.7594 H 1 RES   0.0000
822 H -6.31145 -7.43801 10.1173 H 1 RES   0.0000
823 H -2.55913 13.5568 -0.0928749 H 1 RES   0.0000
824 H 4.7362 11.4255 13.6975 H 1 RES   0.0000
825 H 11.3589 11.1762 -9.09189 H 1 RES   0.0000
826 H 12.6736 1.42936 -9.77495 H 1 RES   0.0000
827 H 8.41455 -6.31962 6.96281 H 1 RES   0.0000
828 H -10.1046 13.4556 -6.80234 H 1 RES   0.0000
829 H -7.77826 -10.6193 -4.17908 H 1 RES   0.0000
830 H -12.919 3.52946 1.94122 H 1 RES   0.0000
831 H -7.96442 -3.17904 -8.23083 H 1 RES   0.0000
832 H -7.79664 -0.93694 14.156 H 1 RES   0.0000
833 H 14.0347 -13.0645 -6.15417 H 1 RES   0.0000
834 H 0.670212 -7.01518 -5.40591 H 1 RES   0.0000
835 H 6.84021 -12.1131 -11.2531 H 1 RES   0.0000
836 H 4.43365 8.22163 -4.7304 H 1 RES   0.0000
837 H 3.69886 10.3048 2.84985 H 1 RES   0.0000
838 H 13.8591 10.2319 1.51187 H 1 RES   0.0000
839 H 9.89091 5.36382 -10.5377 H 1 RES   0.0000
840 H 1.42199 6.72874 -14.5853 H 1 RES   0.0000
841 H 12.823 -10.5946 -2.00985 H 1 RES   0.0000
842 H 9.91023 8.4895 -7.22482 H 1 RES   0.0000
843 H -4.87865 12.7712 2.13843 H 1 RES   0.0000
844 H 10.2096 -6.03248 6.98334 H 1 RES   0.0000
845 H 7.53944 -8.93717 -2.90686 H 1 RES   0.0000
846 H 10.8109 14.4441 -5.60656 H 1 RES   0.0000
847 H 5.19294 10.7928 -11.8787 H 1 RES   0.0000
848 H 14.5627 -13.3416 -2.96291 H 1 RES   0.0000
849 H 13.3583 7.05377 7.505 H 1 RES   0.0000
850 H -7.75926 -13.2207 2.81267 H 1 RES   0.0000
851 H -11.2641 -6.73332 -3.54334 H 1 RES   0.0000
852 H 1.33192 -11.3507 10.7479 H 1 RES   0.0000
853 H 3.97416 14.1342 7.40464 H 1 RES   0.0000
854 H -12.1545 -6.31319 -12.8725 H 1 RES   0.0000
855 H 0.0675968 11.0818 12.2836 H 1 RES   0.0000
856 H -4.02064 -3.34107 -4.21556 H 1 RES   0.0000
857 H 6.1353 -9.66618 -7.9117 H 1 RES   0.0000
858 H 2.47888 11.6999 -14.6025 H 1 RES   0.0000
859 H 10.1415 1.10561 1.54613 H 1 RES   0.0000
860 H -9.93011 9.92446 -8.42307 H 1 RES   0.0000
861 H 9.15928 7.79466 0.716534 H 1 RES   0.0000
862 H -6.01972 -6.65632 7.97876 H 1 RES   0.0000
863 H -13.0748 4.12392 -13.9779 H 1 RES   0.0000
864 H 7.7526 13.8723 -14.2574 H 1 RES   0.0000
865 H 9.79956 -10.8733 12.8059 H 1 RES   0.0000
866 H -5.58736 -13.9379 -3.39732 H 1 RES   0.0000
867 H -6.27404 -10.8207 -14.4445 H 1 RES   0.0000
868 H 9.35665 10.665 7.75458 H 1 RES   0.0000
869 H 3.84501 -1.05438 6.52229 H 1 RES   0.0000
870 H -5.91787 5.71957 -3.5496 H 1 RES   0.0000
871 H 5.58003 -5.68394 -8.9545 H 1 RES   0.0000
872 H -7.561 13.8168 10.9546 H 1 RES   0.0000
873 H -4.75799 -1.57246 14.2876 H 1 RES   0.0000
874 H 1.25584 -9.88423 -3.26988 H 1 RES   0.0000
875 H -7.13058 1.69565 -6.29824 H 1 RES   0.0000
876 H 6.44744 -1.25672 -1.29611 H 1 RES   0.0000
877 H -10.9828 -8.31304 13.748 H 1 RES   0.0000
878 H -10.968 -6.67052 -2.04828 H 1 RES   0.0000
879 H -14.6726 -4.13089 7.5489 H 1 RES   0.0000
880 H 12.6757 11.1449 2.85005 H 1 RES   0.0000
881 H 12.6204 3.24412 9.18933 H 1 RES   0.0000
882 H -11.6221 -0.964276 -1.2482 H 1 RES   0.0000
883 H -7.4582 12.7886 -6.44169 H 1 RES   0.0000
884 H -2.70481 -14.6076 6.21987 H 1 RES   0.0000
885 H -0.948154 10.079 13.7004 H 1 RES   0.0000
886 H -14.5133 11.7868 4.67574 H 1 RES   0.0000
887 H 1.6127 -5.08019 -1.74892 H 1 RES   0.0000
888 H -12.4012 -9.63652 12.7071 H 1 RES   0.0000
889 H 11.3871 11.2845 2.74077 H 1 RES   0.0000
890 H 9.55017 -3.63027 14.6322 H 1 RES   0.0000
891 H -10.5596 3.20757 13.971 H 1 RES   0.0000
892 H -9.25696 6.01818 -0.947266 H 1 RES   0.0000
893 H 6.34684 -1.13738 -12.9824 H 1 RES   0.0000
894 H -10.2181 14.1325 6.05496 H 1 RES   0.0000
895 H 4.41736 12.1934 3.84859 H 1 RES   0.0000
896 H -10.0371 4.9281 -7.16468 H 1 RES   0.0000
897 H -9.99471 -2.53029 5.39115 H 1 RES   0.0000
898 H -11.338 -6.40754 4.20138 H 1 RES   0.0000
899 H 12.5102 0.453742 7.01508 H 1 RES   0.0000
900 H -4.38404 4.44491 0.279468 H 1 RES   0.0000
901 H -11.1025 -8.39999 6.67895 H 1 RES   0.0000
902 H -13.2657 -3.96504 3.01971 H 1 RES   0.0000
903 H 0.793788 -11.3476 -10.4504 H 1 RES   0.0000
904 H 0.969269 4.61232 -7.31303 H 1 RES   0.0000
905 H 1.76747 2.90729 12.5804 H 1 RES   0.0000
906 H 3.21434 2.59528 0.756595 H 1 RES   0.0000
907 H 4.04307 14.1309 -5.95248 H 1 RES   0.0000
908 H -7.66265 11.9407 5.60586 H 1 RES   0.0000
909 H -1.49147 -11.1074 10.9106 H 1 RES   0.0000
910 H 14.5301 -7.7217 -4.63877 H 1 RES   0.0000
911 H -2.39425 8.54211 -1.11283 H 1 RES   0.0000
912 H -6.54795 -12.9161 -9.75608 H 1 RES   0.0000
913 H -8.28459 1.95095 1.36457 H 1 RES   0.0000
914 H -7.12277 3.64346 14.2012 H 1 RES   0.0000
915 H -7.24485 0.972449 12.8993 H 1 RES   0.0000
916 H -8.22331 10.5994 12.3122 H 1 RES   0.0000
917 H 1.59382 -8.88562 -9.14249 H 1 RES   0.0000
918 H 2.27645 3.08537 -12.0793 H 1 RES   0.0000
919 H -5.87602 1.12161 5.41137 H 1 RES   0.0000
920 H 11.2249 9.73232 -9.37934 H 1 RES   0.0000
921 H -4.20259 14.0515 -0.390793 H 1 RES   0.0000
922 H -11.7946 10.1423 3.08267 H 1 RES   0.0000
923 H -4.56161 -12.8746 12.5571 H 1 RES   0.0000
924 H -9.13203 14.0477 1.69147 H 1 RES   0.0000
925 H -3.12967 10.5586 6.09376 H 1 RES   0.0000
926 H -10.95 3.39635 -5.55882 H 1 RES   0.0000
927 H 13.2941 10.8332 -13.9209 H 1 RES   0.0000
928 H 1.54195 -11.278 4.72092 H 1 RES   0.0000
929 H -13.0493 -6.7649 -13.8543 H 1 RES   0.0000
930 H -5.82359 -12.8211 -0.985916 H 1 RES   0.0000
931 H 4.91863 -14.5174 4.27963 H 1 RES   0.0000
932 H 10.406 -10.8785 1.35592 H 1 RES   0.0000
933 H -10.5948 2.98991 9.68946 H 1 RES   0.0000
934 H 12.9978 -7.19883 6.27325 H 1 RES   0.0000
935 H 8.09474 1.0758 7.34472 H 1 RES   0.0000
936 H -11.1209 -8.47508 -0.277193 H 1 RES   0.0000
937 H -13.2184 -1.0365 -14.8438 H 1 RES   0.0000
938 H 8.02054 13.2694 -9.33348 H 1 RES   0.0000
939 H -7.01297 -0.996949 -8.2224 H 1 RES   0.0000
940 H 8.82148 1.18786 -14.4663 H 1 RES   0.0000
941 H 4.33587 -8.0708 9.77967 H 1 RES   0.0000
942 H 5.66821 1.79031 -6.80788 H 1 RES   0.0000
943 H -5.34315 -0.581514 5.4747 H 1 RES   0.0000
944 H -8.48905 -2.46541 -4.45347 H 1 RES   0.0000
945 H -13.0204 13.362 -1.2631 H 1 RES   0.0000
946 H 9.80401 2.14499 13.1717 H 1 RES   0.0000
947 H 8.29536 3.35253 -4.19117 H 1 RES   0.0000
948 H -6.92873 -8.26847 -14.6099 H 1 RES   0.0000
949 H -10.993 9.54703 -9.36333 H 1 RES   0.0000
950 H 4.98581 -13.5638 -3.44269 H 1 RES   0.0000
951 H 2.81887 -8.96222 -9.0906 H 1 RES   0.0000
952 H -6.15278 9.67846 2.05072 H 1 RES   0.0000
953 H 5.27183 2.61884 11.1403 H 1 RES   0.0000
954 H -11.8763 -6.58951 7.55228 H 1 RES   0.0000
955 H -8.46847 6.28541 -14.8358 H 1 RES   0.0000
956 H -14.505 1.22961 -1.80638 H 1 RES   0.0000
957 H 14.6506 -14.6942 -9.51809 H 1 RES   0.0000
958 H 6.03599 3.39271 13.9137 H 1 RES   0.0000
959 H 8.44533 -10.056 -6.34211 H 1 RES   0.0000
960 H -10.9505 12.0556 -11.2621 H 1 RES   0.0000
961 H -6.8357 -12.2914 -11.8706 H 1 RES   0.0000
962 H 7.77174 -14.2663 2.8406 H 1 RES   0.0000
963 H 9.75128 -3.84568 -10.3411 H 1 RES   0.0000
964 H 5.15782 -1.02922 -13.0505 H 1 RES   0.0000
965 H -6.58024 8.70069 -9.59925 H 1 RES   0.0000
966 H 13.6322 13.4255 -5.27774 H 1 RES   0.0000
967 H -7.02179 -5.07253 -8.23843 H 1 RES   0.0000
968 H -2.12099 -5.88085 -6.89331 H 1 RES   0.0000
969 H -7.58677 -12.7916 6.16035 H 1 RES   0.0000
970 H -9.6512 -3.38318 -4.67171 H 1 RES   0.0000
971 H 1.65008 3.6182 8.49914 H 1 RES   0.0000
972 H 2.17238 12.1759 -8.61335 H 1 RES   0.0000
973 H 10.8819 12.6942 -10.7518 H 1 RES   0.0000
974 H 7.09763 11.8732 -8.30599 H 1 RES   0.0000
975 H -2.77066 -6.77458 -6.11361 H 1 RES   0.0000
976 H -4.92905 -3.22705 -4.90565 H 1 RES   0.0000
977 H -1.11725 -7.44126 2.79447 H 1 RES   0.0000
978 H -14.5651 -7.32763 -13.4168 H 1 RES   0.0000
979 H -5.09753 12.4001 5.29373 H 1 RES   0.0000
980 H -10.5514 -3.71867 4.75767 H 1 RES   0.0000
981 H -9.13364 2.49427 1.86189 H 1 RES   0.0000
982 H 2.29507 -6.9344 -2.10669 H 1 RES   0.0000
983 H -3.86324 -10.1763 0.177056 H 1 RES   0.0000
984 H -12.5872 -11.1218 2.24752 H 1 RES   0.0000
985 H 12.5501 1.43709 2.69439 H 1 RES   0.0000
986 H 0.681473 10.1915 -5.91769 H 1 RES   0.0000
987 H 11.3943 -4.41238 -14.7031 H 1 RES   0.0000
988 H -6.59037 13.6178 -5.91489 H 1 RES   0.0000
989 H 10.5371 13.8253 -2.04738 H 1 RES   0.0000
990 H -14.4829 -4.65139 9.5422 H 1 RES   0.0000
991 H -6.81862 -12.2107 13.8719 H 1 RES   0.0000
992 H 3.32695 -6.12399 0.230628 H 1 RES   0.0000
993 H 9.6721 11.5777 -6.30374 H 1 RES   0.0000
994 H 1.44869 -1.16857 -6.2967 H 1 RES   0.0000
995 H -0.679557 6.02573 -6.62434 H 1 RES   0.0000
996 H -1.01324 -12.1821 14.4614 H 1 RES   0.0000
997 H 9.33358 13.2138 8.03802 H 1 RES   0.0000
998 H 8.47296 -5.67449 13.2714 H 1 RES   0.0000
999 H 0.0334773 -4.7393 13.5898 H 1 RES   0.0000
1000 H -6.31708 0.765945 7.63575 H 1 RES   0.0000
1001 H 10.9771 -10.725 -8.08935 H 1 RES   0.0000
1002 H -10.1616 4.54564 -12.2253 H 1 RES   0.0000
1003 H -13.1202 13.0576 8.88536 H 1 RES   0.0000
1004 H -5.56447 -6.38364 9.18599 H 1 RES   0.0000
1005 H 12.7212 14.4524 -0.0619345 H 1 RES   0.0000
1006 H 0.765089 -6.88295 -8.67501 H 1 RES   0.0000
1007 H 8.27675 -8.98565 4.2308 H 1 RES   0.0000
1008 H 11.9604 2.5667 12.2056 H 1 RES   0.0000
1009 H -5.74159 -14.0788 -11.7118 H 1 RES   0.0000
1010 H 8.89275 -0.256459 5.75829 H 1 RES   0.0000
1011 H 12.4511 -3.87226 12.3465 H 1 RES   0.0000
1012 H -9.55424 -3.70057 9.19454 H 1 RES   0.0000
1013 H -10.8376 -3.68959 9.07684 H 1 RES   0.0000
1014 H 7.05293 4.92924 11.8443 H 1 RES   0.0000
1015 H 12.2148 14.2073 7.62307 H 1 RES   0.0000
1016 H 4.3569 -3.09143 8.07514 H 1 RES   0.0000
1017 H -6.99657 -0.163015 8.09209 H 1 RES   0.0000
1018 H -10.3255 13.2574 13.7903 H 1 RES   0.0000
1019 H 5.70061 -5.51541 11.496 H 1 RES   0.0000
1020 H -6.04666 -0.191867 -7.57371 H 1 RES   0.0000
1021 H -1.82904 9.1934 -2.10239 H 1 RES   0.0000
1022 H 0.142128 12.9362 4.12882 H 1 RES   0.0000
1023 H 6.11299 -11.1617 -4.71087 H 1 RES   0.0000
1024 H 10.6002 -2.52689 -11.9405 H 1 RES   0.0000
1025 H 4.24899 6.16276 -9.62012 H 1 RES   0.0000
1026 H -4.31911 4.25165 -10.1219 H 1 RES   0.0000
1027 H 7.69924 -11.6482 -0.805495 H 1 RES   0.0000
1028 H -8.62907 -13.4288 5.1094 H 1 RES   0.0000
1029 H 3.48654 -11.7349 -10.8543 H 1 RES   0.0000
1030 H -13.8551 4.73443 -5.35095 H 1 RES   0.0000
1031 H -3.31441 5.31975 0.560393 H 1 RES   0.0000
1032 H -8.66004 -12.1675 -2.08309 H 1 RES   0.0000
1033 H 0.693278 -9.82433 -8.13354 H 1 RES   0.0000
1034 H 6.50102 -8.79092 -1.3243 H 1 RES   0.0000
1035 H 9.11773 -11.0689 -9.95934 H 1 RES   0.0000
1036 H 13.5729 13.9738 -12.4672 H 1 RES   0.0000
1037 H 7.15429 -5.78081 -4.43223 H 1 RES   0.0000
1038 H 1.44024 -12.0105 -4.11787 H 1 RES   0.0000
1039 H -8.42869 0.976453 6.64612 H 1 RES   0.0000
1040 H 13.194 -14.6219 -7.55908 H 1 RES   0.0000
1041 H 14.403 6.70431 5.33068 H 1 RES   0.0000
1042 H 8.9978 -6.72545 13.6396 H 1 RES   0.0000
1043 H -10.7231 -11.3328 7.67362 H 1 RES   0.0000
1044 H 8.07494 12.8468 5.86263 H 1 RES   0.0000
1045 H 12.6506 8.10013 -12.6264 H 1 RES   0.0000
1046 H -9.75154 -4.2404 14.5862 H 1 RES   0.0000
1047 H 8.81246 -5.75786 0.643202 H 1 RES   0.0000
1048 H -1.92468 0.411388 13.1565 H 1 RES   0.0000
1049 H -11.4808 -3.75383 6.32254 H 1 RES   0.0000
1050 H -6.29453 -12.3942 10.785 H 1 RES   0.0000
1051 H -0.167066 -0.129083 -8.11939 H 1 RES   0.0000
1052 H -8.99071 -14.0505 -6.22671 H 1 RES   0.0000
1053 H -14.2438 -4.78924 -7.30194 H 1 RES   0.0000
1054 H 3.18138 13.1009 -11.6931 H 1 RES   0.0000
1055 H -9.96793 -13.7823 6.64575 H 1 RES   0.0000
1056 H 14.397 8.01175 2.00896 H 1 RES   0.0000
1057 H -8.45737 -3.38978 7.72737 H 1 RES   0.0000
1058 H 13.2626 9.6737 8.72048 H 1 RES   0.0000
1059 H 7.75459 10.4513 13.6339 H 1 RES   0.0000
1060 H -1.26003 7.3085 -6.40677 H 1 RES   0.0000
1061 H -13.1675 0.498849 2.80941 H 1 RES   0.0000
1062 H 10.284 2.96512 -1.81953 H 1 RES   0.0000
1063 H -6.13116 7.68314 -14.5281 H 1 RES   0.0000
1064 H -13.3856 1.56136 -8.87332 H 1 RES   0.0000
1065 H 12.5956 -13.4063 13.0126 H 1 RES   0.0000
1066 H 8.09562 7.93338 7.03291 H 1 RES   0.0000
1067 H -7.7843 4.7604 5.32277 H 1 RES   0.0000
1068 H 14.5285 14.5186 -3.62139 H 1 RES   0.0000
1069 H -13.4034 -12.2996 -12.2015 H 1 RES   0.0000
1070 H 10.5569 8.87955 2.40381 H 1 RES   0.0000
1071 H -1.10855 11.4963 -5.69341 H 1 RES   0.0000
1072 H -2.74388 3.21022 -6.50468 H 1 RES   0.0000
1073 H -2.06402 0.992391 -12.6519 H 1 RES   0.0000
1074 H 6.48207 -10.9723 -11.6627 H 1 RES   0.0000
1075 H -13.3147 -3.59849 -0.768531 H 1 RES   0.0000
1076 H -4.82935 0.0363829 -1.22769 H 1 RES   0.0000
1077 H -5.68257 -4.19021 9.42173 H 1 RES   0.0000
1078 H 2.15023 -12.7248 -5.30111 H 1 RES   0.0000
1079 H -5.33982 -2.85029 -6.10801 H 1 RES   0.0000
1080 H -5.85372 -7.57297 8.83565 H 1 RES   0.0000
1081 H 4.09129 13.5551 -12.0602 H 1 RES   0.0000
1082 H -14.2513 7.06543 13.0533 H 1 RES   0.0000
1083 H -6.37605 2.3485 -12.3855 H 1 RES   0.0000
1084 H -8.1527 14.113 -6.23457 H 1 RES   0.0000
1085 H -14.7407 -13.4052 0.151205 H 1 RES   0.0000
1086 H 0.28637 1.55675 -8.53817 H 1 RES   0.0000
1087 H 13.7693 -2.6452 8.01913 H 1 RES   0.0000
1088 H -14.2099 -2.24753 -13.3743 H 1 RES   0.0000
1089 H 9.58539 4.62345 2.57095 H 1 RES   0.0000
1090 H 12.2478 -10.0588 2.44029 H 1 RES   0.0000
1091 H 1.27218 -8.44507 -14.7156 H 1 RES   0.0000
1092 H -8.10598 -9.00782 -1.10431 H 1 RES   0.0000
1093 H -3.14491 -7.72997 -0.481382 H 1 RES   0.0000
1094 H -3.47295 2.6332 -4.23625 H 1 RES   0.0000
1095 H 10.9542 9.71493 0.342176 H 1 RES   0.0000
1096 H 7.79023 8.8389 -4.1812 H 1 RES   0.0000
1097 H 1.38887 -13.0779 4.71978 H 1 RES   0.0000
1098 H 13.0139 3.77664 10.6121 H 1 RES   0.0000
1099 H 0.279611 -9.80365 0.895044 H 1 RES   0.0000
1100 H -11.8219 7.58413 13.5267 H 1 RES   0.0000
1101 H -10.1272 -2.07135 3.26307 H 1 RES   0.0000
1102 H -14.3338 -13.1548 1.97151 H 1 RES   0.0000
1103 H -7.40655 -4.07655 -8.60689 H 1 RES   0.0000
1104 H -12.3458 -7.63515 3.98363 H 1 RES   0.0000
1105 H 5.52484 -4.19456 -11.6403 H 1 RES   0.0000
1106 H 5.39622 -14.0655 -7.29438 H 1 RES   0.0000
1107 H 0.075595 -14.1319 -7.40993 H 1 RES   0.0000
1108 H 4.76052 10.4293 2.27633 H 1 RES   0.0000
1109 H 11.6187 -3.44568 13.0181 H 1 RES   0.0000
1110 H -3.95199 -6.98736 -5.86707 H 1 RES   0.0000
1111 H -7.64639 -11.5608 11.7549 H 1 RES   0.0000
1112 H -1.34966 -8.3162 -5.45728 H 1 RES   0.0000
1113 H -5.06901 -12.1322 -10.3601 H 1 RES   0.0000
1114 H 9.39361 -0.126596 -14.5154 H 1 RES   0.0000
1115 H -13.6117 13.4187 -8.20579 H 1 RES   0.0000
1116 H -9.10685 -3.99553 11.7452 H 1 RES   0.0000
1117 H -1.25405 14.7956 3.51782 H 1 RES   0.0000
1118 H 7.39561 -11.9358 11.0125 H 1 RES   0.0000
1119 H 1.75702 -4.7995 7.12877 H 1 RES   0.0000
1120 H -3.12246 13.8074 5.4491 H 1 RES   0.0000
1121 H 11.1308 2.01905 7.34906 H 1 RES   0.0000
1122 H 10.8482 3.4581 13.6795 H 1 RES   0.0000
1123 H 1.31395 9.50725 -12.861 H 1 RES   0.0000
1124 H 2.59025 -7.73461 -0.19573 H 1 RES   0.0000
1125 H -5.76458 -0.921163 -2.62556 H 1 RES   0.0000
1126 H 0.305394 -11.6118 -2.28108 H 1 RES   0.0000
1127 H -2.01921 7.7859 -0.693321 H 1 RES   0.0000
1128 H -14.6462 9.93373 9.36375 H 1 RES   0.0000
1129 H 8.24734 9.60749 12.2388 H 1 RES   0.0000
1130 H -5.23698 -10.0208 0.875186 H 1 RES   0.0000
1131 H 12.9438 5.64823 12.1511 H 1 RES   0.0000
1132 H 9.4777 10.8222 -8.0766 H 1 RES   0.0000
1133 H 7.11437 -3.75058 -4.33613 H 1 RES   0.0000
1134 H 4.42944 -6.74408 -5.36135 H 1 RES   0.0000
1135 H 11.9407 2.41038 13.3424 H 1 RES   0.0000
1136 H 4.58362 5.22041 -9.98898 H 1 RES   0.0000
1137 H 4.11874 -9.62734 -6.80269 H 1 RES   0.0000
1138 H -2.24358 1.06812 4.06803 H 1 RES   0.0000
1139 H -7.08768 -2.93812 -11.5638 H 1 RES   0.0000
1140 H 9.78897 13.7423 9.73501 H 1 RES   0.0000
1141 H -9.26777 14.3848 -5.93881 H 1 RES   0.0000
1142 H 4.04764 -7.76427 -11.8998 H 1 RES   0.0000
1143 H 1.48712 1.15683 6.15836 H 1 RES   0.0000
1144 H 13.8576 4.79125 -9.06852 H 1 RES   0.0000
1145 H 0.28769 5.32071 11.5359 H 1 RES   0.0000
1146 H 5.64055 8.43164 13.4079 H 1 RES   0.0000
1147 H -5.21676 9.9189 -0.256209 H 1 RES   0.0000
1148 H -10.7859 1.13619 -4.74467 H 1 RES   0.0000
1149 H -0.0637298 6.00039 2.09725 H 1 RES   0.0000
1150 H 12.9392 14.3782 4.02434 H 1 RES   0.0000
1151 H 10.7209 -0.197631 -8.56038 H 1 RES   0.0000
1152 H -6.04455 -10.9288 -9.38315 H 1 RES   0.0000
1153 H 0.93429 5.92649 -4.85765 H 1 RES   0.0000
1154 H -9.80178 -0.0420572 2.6769 H 1 RES   0.0000
1155 H -0.132383 -1.45924 10.6126 H 1 RES   0.0000
1156 H 4.43268 4.45628 1.56261 H 1 RES   0.0000
1157 H -13.9625 -13.0862 -2.39344 H 1 RES   0.0000
1158 H 10.2397 0.347918 0.0603051 H 1 RES   0.0000
1159 H -10.5875 -4.78498 -3.67893 H 1 RES   0.0000
1160 H 5.39881 -10.4392 -4.24155 H 1 RES   0.0000
1161 H -8.34539 -1.34601 -4.6746 H 1 RES   0.0000
1162 H 9.1607 0.718086 9.64744 H 1 RES   0.0000
1163 H 9.56678 7.1147 4.97978 H 1 RES   0.0000
1164 H -9.93328 -11.8264 -7.10064 H 1 RES   0.0000
1165 H -2.89273 12.4886 9.75562 H 1 RES   0.0000
1166 H 10.5191 6.224 -2.48618 H 1 RES   0.0000
1167 H 4.9012 1.75406 2.15331 H 1 RES   0.0000
1168 H 7.46532 -3.22764 -8.15541 H 1 RES   0.0000
1169 H 0.267623 0.0139049 2.56702 H 1 RES   0.0000
1170 H -14.394 2.26561 -2.46359 H 1 RES   0.0000
1171 H -14.5424 -2.64775 10.5481 H 1 RES   0.0000
1172 H 0.579384 3.73166 10.1883 H 1 RES   0.0000
1173 H -8.84347 7.73547 -3.83894 H 1 RES   0.0000
1174 H 1.97439 5.39376 -10.2966 H 1 RES   0.0000
1175 H 10.059 -6.87901 -2.37135 H 1 RES   0.0000
1176 H 4.86833 -2.34078 3.81263 H 1 RES   0.0000
1177 H 1.38163 14.4355 8.28048 H 1 RES   0.0000
1178 H -0.474467 5.89849 -12.7323 H 1 RES   0.0000
1179 H 9.15151 1.94009 5.4802 H 1 RES   0.0000
1180 H 2.2228 -11.1116 13.6873 H 1 RES   0.0000
1181 H 0.424404 9.68308 1.15044 H 1 RES   0.0000
1182 H 4.46377 1.24269 6.46192 H 1 RES   0.0000
1183 H 12.3983 3.76383 2.70551 H 1 RES   0.0000
1184 H 3.10044 14.0277 12.938 H 1 RES   0.0000
1185 H 9.38346 7.10642 -12.612 H 1 RES   0.0000
1186 H -3.24863 13.9217 6.51033 H 1 RES   0.0000
1187 H -14.0082 -6.38094 -13.6057 H 1 RES   0.0000
1188 H -9.62302 -12.9674 10.7532 H 1 RES   0.0000
1189 H -8.86688 12.2722 -4.68713 H 1 RES   0.0000
1190 H 1.82763 5.96002 0.261603 H 1 RES   0.0000
1191 H 8.84549 13.0471 -0.0917402 H 1 RES   0.0000
1192 H -3.86525 3.59191 10.035 H 1 RES   0.0000
1193 H 9.35627 -4.97489 -14.1395 H 1 RES   0.0000
1194 H -11.1503 7.79674 -7.97618 H 1 RES   0.0000
1195 H -11.2885 13.9095 5.91847 H 1 RES   0.0000
1196 H 1.03894 -13.342 -8.35441 H 1 RES   0.0000
1197 H -4.06622 2.56245 13.5164 H 1 RES   0.0000
1198 H -8.41206 -13.1568 11.4476 H 1 RES   0.0000
1199 H 6.9212 -4.84377 -12.121 H 1 RES   0.0000
1200 H -6.07471 -6.08019 -7.46566 H 1 RES   0.0000
1201 H -2.08928 7.05096 -3.37731 H 1 RES   0.0000
1202 H 13.9109 7.78901 -4.89431 H 1 RES   0.0000
1203 H 10.9959 0.55849 14.0001 H 1 RES   0.0000
1204 H -12.8706 -8.49524 8.0266 H 1 RES   0.0000
1205 H 1.75176 0.178738 2.09829 H 1 RES   0.0000
1206 H 11.6378 12.7956 -7.97335 H 1 RES   0.0000
1207 H 13.3856 -7.71581 8.93693 H 1 RES   0.0000
1208 H 3.64663 -7.50987 13.5924 H 1 RES   0.0000
1209 H -7.07495 -6.38116 3.57701 H 1 RES   0.0000
1210 H -12.5345 2.06301 13.4554 H 1 RES   0.0000
1211 H -7.28048 12.9314 -9.13927 H 1 RES   0.0000
1212 H 3.39608 -12.9757 -10.1985 H 1 RES   0.0000
1213 H 1.93442 1.36406 -1.77193 H 1 RES   0.0000
1214 H 6.04217 -2.98492 7.72927 H 1 RES   0.0000
1215 H 13.2445 -11.8542 0.441048 H 1 RES   0.0000
1216 H -11.2017 -4.24904 -13.4626 H 1 RES   0.0000
1217 H -0.88814 -6.24817 -6.8995 H 1 RES   0.0000
1218 H 14.3935 -6.8719 -5.59338 H 1 RES   0.0000
1219 H 8.19466 -3.57277 -4.73782 H 1 RES   0.0000
1220 H 8.06552 11.4201 -10.5781 H 1 RES   0.0000
1221 H 9.86212 -7.65895 3.36503 H 1 RES   0.0000
1222 H 7.03882 -2.01389 7.5238 H 1 RES   0.0000
1223 H 3.51114 3.54617 9.17454 H 1 RES   0.0000
1224 H -0.634728 -3.00999 -9.7333 H 1 RES   0.0000
1225 H 6.46243 -8.84118 1.78033 H 1 RES   0.0000
1226 H 9.94029 -12.6215 -8.15448 H 1 RES   0.0000
1227 H 13.2685 1.90477 13.6772 H 1 RES   0.0000
1228 H 5.37026 3.93083 -3.24615 H 1 RES   0.0000
1229 H -13.4368 2.80226 -0.216999 H 1 RES   0.0000
1230 H 8.67823 -4.47268 -11.1766 H 1 RES   0.0000
1231 H -14.106 13.4336 -1.6486 H 1 RES   0.0000
1232 H 13.8052 -11.1691 10.7771 H 1 RES   0.0000
1233 H 7.22554 11.5961 -1.25894 H 1 RES   0.0000
1234 H -13.2206 -7.78187 -13.8898 H 1 RES   0.0000
1235 H -6.10934 -0.576789 -9.03657 H 1 RES   0.0000
1236 H 7.59014 -6.0182 -3.16621 H 1 RES   0.0000
1237 H 1.38719 8.74943 9.34932 H 1 RES   0.0000
1238 H -13.4254 14.6255 -0.93979 H 1 RES   0.0000
1239 H 8.45854 7.41501 13.5219 H 1 RES   0.0000
1240 H 3.67624 12.2378 -11.1505 H 1 RES   0.0000
1241 H 4.75118 2.49899 1.10788 H 1 RES   0.0000
1242 H -3.07349 6.12258 12.6358 H 1 RES   0.0000
1243 H 5.96436 -2.42465 -5.20951 H 1 RES   0.0000
1244 H 4.77635 14.6316 -13.3357 H 1 RES   0.0000
1245 H -10.1988 -6.50149 -7.33758 H 1 RES   0.0000
1246 H 14.3737 -7.41767 6.72165 H 1 RES   0.0000
1247 H -14.2261 8.2952 -9.55592 H 1 RES   0.0000
1248 H -2.71903 -9.54247 -3.39347 H 1 RES   0.0000
1249 H -7.15089 -0.35283 -5.36296 H 1 RES   0.0000
1250 H -0.345189 -6.36144 -7.87314 H 1 RES   0.0000
1251 H 11.2982 -11.647 -3.76527 H 1 RES   0.0000
1252 H -10.2801 -7.45477 -12.6995 H 1 RES   0.0000
1253 H 8.15177 -2.38215 -10.0025 H 1 RES   0.0000
1254 H 11.221 1.31822 -2.56308 H 1 RES   0.0000
1255 H 14.4876 3.05654 -13.2845 H 1 RES   0.0000
1256 H -3.90322 -2.70193 5.0625 H 1 RES   0.0000
1257 H -8.24055 12.6619 -8.82891 H 1 RES   0.0000
1258 H -9.06495 3.20338 11.8794 H 1 RES   0.0000
1259 H -0.328256 12.6073 10.446 H 1 RES   0.0000
1260 H -13.9494 3.87477 9.59607 H 1 RES   0.0000
1261 H -2.06563 2.66525 3.63118 H 1 RES   0.0000
1262 H -6.66285 7.62161 -3.07906 H 1 RES   0.0000
1263 H -2.85546 3.25909 9.73765 H 1 RES   0.0000
1264 H 6.10821 0.203977 -7.26814 H 1 RES   0.0000
1265 H 13.7143 4.91007 14.399 H 1 RES   0.0000
1266 H 2.2718 -7.77643 -9.91771 H 1 RES   0.0000
1267 H -5.97654 6.90927 13.4314 H 1 RES   0.0000
1268 H -10.3626 14.3247 8.21752 H 1 RES   0.0000
1269 H 14.121 2.48558 0.447627 H 1 RES   0.0000
1270 H -4.10832 2.14015 -5.40792 H 1 RES   0.0000
1271 H -14.5321 9.615 5.50347 H 1 RES   0.0000
1272 H 6.70602 -9.6645 -3.29462 H 1 RES   0.0000
1273 H -6.3797 -14.2295 -13.0941 H 1 RES   0.0000
1274 H 14.4208 -5.4428 -14.3197 H 1 RES   0.0000
1275 H -9.86788 10.1829 -6.10483 H 1 RES   0.0000
1276 H 10.5628 -2.12259 -3.77328 H 1 RES   0.0000
1277 H -5.15211 -11.6688 -5.15866 H 1 RES   0.0000
1278 H -6.09445 14.5069 0.217272 H 1 RES   0.0000
1279 H 0.644469 -0.593074 -5.67978 H 1 RES   0.0000
1280 H 11.8828 10.7114 -0.600595 H 1 RES   0.0000
1281 H 13.9368 -1.19277 -2.56612 H 1 RES   0.0000
1282 H 1.7872 11.628 9.15371 H 1 RES   0.0000
1283 H 0.516056 -13.7251 -13.3179 H 1 RES   0.0000
1284 H 12.5801 11.3202 -4.16506 H 1 RES   0.0000
1285 H -12.9927 5.76425 13.4252 H 1 RES   0.0000
1286 H -1.2145 12.704 -1.4825 H 1 RES   0.0000
1287 H 4.94773 13.7116 -1.83083 H 1 RES   0.0000
1288 H -3.62981 13.7344 -9.52636 H 1 RES   0.0000
1289 H 6.60613 -10.5056 7.5591 H 1 RES   0.0000
1290 H -0.570061 -5.88643 9.83515 H 1 RES   0.0000
1291 H 8.7187 -0.643755 -3.49131 H 1 RES   0.0000
1292 H -0.0973204 13.0348 8.27111 H 1 RES   0.0000
1293 H 12.6319 -14.6374 -2.19412 H 1 RES   0.0000
1294 H 14.111 -9.46781 14.2222 H 1 RES   0.0000
1295 H 14.7062 -9.65918 7.02631 H 1 RES   0.0000
1296 H -3.1263 12.1522 13.7385 H 1 RES   0.0000
1297 H -9.20581 5.07162 -3.27555 H 1 RES   0.0000
1298 H 8.57133 -1.28748 14.3328 H 1 RES   0.0000
1299 H -9.50676 -8.63779 5.5117 H 1 RES   0.0000
1300 H -0.638474 8.31063 7.92838 H 1 RES   0.0000
1301 H 5.126 4.25077 4.0728 H 1 RES   0.0000
1302 H 0.675927 10.0464 7.09952 H 1 RES   0.0000
1303 H 12.5369 4.42489 -3.40375 H 1 RES   0.0000
1304 H 0.615171 -10.4615 -2.22017 H 1 RES   0.0000
1305 H 4.02256 1.6618 1.07152 H 1 RES   0.0000
1306 H 8.09261 -14.7678 14.6272 H 1 RES   0.0000
1307 H -4.02318 -2.24758 -10.6116 H 1 RES   0.0000
1308 H -13.2737 13.364 5.3043 H 1 RES   0.0000
1309 H 10.0487 4.61759 -2.31076 H 1 RES   0.0000
1310 H -3.69455 -0.155782 -5.7323 H 1 RES   0.0000
1311 H 11.5379 -3.26537 -6.62195 H 1 RES   0.0000
1312 H 4.31804 2.94434 2.22024 H 1 RES   0.0000
1313 H 11.8356 -10.6007 14.0663 H 1 RES   0.0000
1314 H -1.89101 11.2271 -7.68564 H 1 RES   0.0000
1315 H -14.1007 13.563 11.7148 H 1 RES   0.0000
1316 H 6.23792 13.2561 9.98786 H 1 RES   0.0000
1317 H 4.11894 12.9529 -0.576003 H 1 RES   0.0000
1318 H -9.62421 -6.04614 3.4198 H 1 RES   0.0000
1319 H 2.17134 3.99285 12.5121 H 1 RES   0.0000
1320 H 2.21773 8.67641 11.5616 H 1 RES   0.0000
1321 H -9.4934 5.44632 7.46097 H 1 RES   0.0000
1322 H 0.315486 -1.54376 -3.51274 H 1 RES   0.0000
1323 H 3.8861 -2.07315 0.357037 H 1 RES   0.0000
1324 H -13.291 4.33498 8.63082 H 1 RES   0.0000
1325 H 5.89944 2.11533 -5.37498 H 1 RES   0.0000
1326 H -9.06857 5.3324 11.2783 H 1 RES   0.0000
1327 H 1.29835 10.6346 0.267502 H 1 RES   0.0000
1328 H -0.602172 9.1674 2.78671 H 1 RES   0.0000
1329 H 5.79571 4.98582 -0.136382 H 1 RES   0.0000
1330 H 6.22615 -1.3729 3.83218 H 1 RES   0.0000
1331 H -1.98385 11.049 -2.5962 H 1 RES   0.0000
1332 H -8.9597 -3.57918 -12.9696 H 1 RES   0.0000
1333 H 2.77595 5.40949 7.21967 H 1 RES   0.0000
1334 H 11.1402 6.77305 13.1525 H 1 RES   0.0000
1335 H 13.1948 11.9374 0.00204206 H 1 RES   0.0000
1336 H -0.751717 1.6137 -3.78525 H 1 RES   0.0000
1337 H -5.99201 6.1387 -8.06955 H 1 RES   0.0000
1338 H -5.3424 12.252 -4.37562 H 1 RES   0.0000
1339 H 13.1325 -13.5756 -8.40462 H 1 RES   0.0000
1340 H -4.39344 14.2223 6.71385 H 1 RES   0.0000
1341 H 9.36019 8.49151 10.441 H 1 RES   0.0000
1342 H -4.15891 14.1548 4.27176 H 1 RES   0.0000
1343 H -8.03335 11.3608 6.36835 H 1 RES   0.0000
1344 H -13.0784 -13.238 0.582062 H 1 RES   0.0000
1345 H 2.26356 -14.0655 -1.17054 H 1 RES   0.0000
1346 H -6.37491 9.23144 6.73321 H 1 RES   0.0000
1347 H 2.22905 12.4072 2.84155 H 1 RES   0.0000
1348 H 1.45105 14.5075 -0.0136925 H 1 RES   0.0000
1349 H -13.7547 -7.32954 3.61099 H 1 RES   0.0000
1350 H 3.86104 0.201603 0.650896 H 1 RES   0.0000
1351 H 1.01779 -12.1882 8.99042 H 1 RES   0.0000
1352 H 6.90068 5.50845 -8.38351 H 1 RES   0.0000
1353 H -12.193 4.07834 -4.61478 H 1 RES   0.0000
1354 H -12.7322 11.0364 5.25534 H 1 RES   0.0000
1355 H -0.0981835 -2.27394 0.2014 H 1 RES   0.0000
1356 H -8.05466 4.87877 -2.88191 H 1 RES   0.0000
1357 H -11.6643 -13.173 6.87691 H 1 RES   0.0000
1358 H -14.1016 -5.92119 11.8926 H 1 RES   0.0000
1359 H -11.3701 -10.7532 11.7401 H 1 RES   0.0000
1360 H 7.54288 2.08769 3.31022 H 1 RES   0.0000
1361 H -10.0308 -0.885619 -5.958 H 1 RES   0.0000
1362 H 2.33733 -12.8596 -1.92491 H 1 RES   0.0000
1363 H 2.57132 8.93863 -13.6175 H 1 RES   0.0000
1364 H 9.87537 2.27367 -4.09419 H 1 RES   0.0000
1365 H 0.0630088 5.42326 -13.6785 H 1 RES   0.0000
1366 H 0.432175 -11.2483 -5.24134 H 1 RES   0.0000
1367 H -10.9865 8.28847 3.45682 H 1 RES   0.0000
1368 H 3.01035 -14.5018 9.28038 H 1 RES   0.0000
1369 H 9.06565 -7.29099 -9.46463 H 1 RES   0.0000
1370 H -14.6543 5.85711 5.20416 H 1 RES   0.0000
1371 H 12.9533 10.6128 0.766923 H 1 RES   0.0000
1372 H 5.47834 -12.3436 -6.64198 H 1 RES   0.0000
1373 H -11.2221 -4.95114 10.1034 H 1 RES   0.0000
1374 H 10.6247 7.01423 12.1733 H 1 RES   0.0000
1375 H -12.1781 6.71203 -9.59407 H 1 RES   0.0000
1376 H -9.19266 5.84017 -9.73948 H 1 RES   0.0000
1377 H 5.83194 -7.23268 3.51633 H 1 RES   0.0000
1378 H 10.8258 -6.51269 3.0135 H 1 RES   0.0000
1379 H -2.45019 12.313 -4.19743 H 1 RES   0.0000
1380 H -10.4681 9.39997 11.3164 H 1 RES   0.0000
1381 H 12.6171 -4.21472 1.22296 H 1 RES   0.0000
1382 H 14.7475 12.6451 -6.17216 H 1 RES   0.0000
1383 H 9.07864 -11.252 13.862 H 1 RES   0.0000
1384 H -7.44886 -2.854 -6.25957 H 1 RES   0.0000
1385 H 7.46086 -6.86525 4.99718 H 1 RES   0.0000
1386 H 14.2924 1.32791 -4.13012 H 1 RES   0.0000
1387 H -6.58643 -8.9352 -5.66143 H 1 RES   0.0000
1388 H -13.7078 8.41183 -5.53796 H 1 RES   0.0000
1389 H 3.61252 10.1086 -6.02002 H 1 RES   0.0000
1390 H 3.29075 -4.28242 -5.4442 H 1 RES   0.0000
1391 H 9.20068 13.4006 -14.01 H 1 RES   0.0000
1392 H -1.59107 8.41924 -7.81351 H 1 RES   0.0000
1393 H -9.25129 11.1718 -13.7676 H 1 RES   0.0000
1394 H -12.5096 1.79099 -10.4886 H 1 RES   0.0000
1395 H -7.79559 -3.14182 6.7206 H 1 RES   0.0000
1396 H -12.6557 -14.1522 5.21975 H 1 RES   0.0000
1397 H 6.84859 -0.797239 5.08245 H 1 RES   0.0000
1398 H 12.3064 1.56922 -7.39777 H 1 RES   0.0000
1399 H 11.857 -13.5836 -3.2057 H 1 RES   0.0000
1400 H -6.05135 -3.45448 7.67049 H 1 RES   0.0000
1401 H 1.84194 -4.98196 2.53265 H 1 RES   0.0000
1402 H -9.48624 -9.60097 -8.17152 H 1 RES   0.0000
1403 H -10.2201 -13.0183 14.6667 H 1 RES   0.0000
1404 H 2.37269 -4.51138 -4.89366 H 1 RES   0.0000
1405 H -4.533 0.211028 -7.48463 H 1 RES   0.0000
1406 H 3.52873 8.49917 -7.95635 H 1 RES   0.0000
1407 H 5.03063 2.72065 8.88676 H 1 RES   0.0000
1408 H -5.11359 6.59953 -11.3769 H 1 RES   0.0000
1409 H 2.81798 -4.47314 1.96205 H 1 RES   0.0000
1410 H -10.4385 -9.40618 2.59796 H 1 RES   0.0000
1411 H 10.3866 -0.478476 -7.1146 H 1 RES   0.0000
1412 H 2.13049 -1.84674 3.99234 H 1 RES   0.0000
1413 H 2.53871 -13.6189 -14.1942 H 1 RES   0.0000
1414 H -13.7232 -5.30222 9.8405 H 1 RES   0.0000
1415 H -1.94425 -13.2971 -2.26225 H 1 RES   0.0000
1416 H -1.46921 13.463 -11.9789 H 1 RES   0.0000
1417 H -6.33775 -12.664 4.20244 H 1 RES   0.0000
1418 H -8.37972 6.05003 -4.2899 H 1 RES   0.0000
1419 H -1.59732 -12.2961 -13.3525 H 1 RES   0.0000
1420 H 14.6999 -3.24838 7.90673 H 1 RES   0.0000
1421 H 1.66605 2.50345 -3.08255 H 1 RES   0.0000
1422 H -8.05797 -2.99268 -12.7788 H 1 RES   0.0000
1423 H 2.52844 -6.28281 -3.34644 H 1 RES   0.0000
1424 H -0.787815 -14.5935 11.1395 H 1 RES   0.0000
1425 H -9.54879 5.4222 -2.11215 H 1 RES   0.0000
1426 H -6.65164 -2.21586 13.9654 H 1 RES   0.0000
1427 H 0.3695 3.00237 -14.8003 H 1 RES   0.0000
1428 H -7.05469 11.2347 0.759306 H 1 RES   0.0000
1429 H 7.77834 -9.95175 6.12504 H 1 RES   0.0000
1430 H 0.548957 -4.99416 2.8731 H 1 RES   0.0000
1431 H 2.42059 -11.1445 7.89113 H 1 RES   0.0000
1432 H -14.799 12.137 2.3924 H 1 RES   0.0000
1433 H 0.415942 -8.50616 -9.725 H 1 RES   0.0000
1434 H -3.16105 6.40256 -1.10326 H 1 RES   0.0000
1435 H 13.9951 1.85098 8.24621 H 1 RES   0.0000
1436 H 12.2138 -9.08538 -1.21236 H 1 RES   0.0000
1437 H 12.3086 2.75589 1.20494 H 1 RES   0.0000
1438 H 4.18518 -7.92364 6.32059 H 1 RES   0.0000
1439 H 10.0764 4.71598 9.44442 H 1 RES   0.0000
1440 H -11.9983 -8.64762 12.918 H 1 RES   0.0000
1441 H -8.54383 -5.22352 -3.66186 H 1 RES   0.0000
1442 H 14.6611 1.3501 10.4809 H 1 RES   0.0000
1443 H -1.84692 -6.76328 -13.4121 H 1 RES   0.0000
1444 H -3.90014 6.11008 -7.25712 H 1 RES   0.0000
1445 H 6.59389 -7.06446 11.7531 H 1 RES   0.0000
1446 H -0.868089 6.49696 3.33225 H 1 RES   0.0000
1447 H -4.67577 -0.0521172 7.13116 H 1 RES   0.0000
1448 H -11.6184 -5.8346 2.5634 H 1 RES   0.0000
1449 H 8.99501 -5.74787 14.073 H 1 RES   0.0000
1450 H 13.0991 -2.9157 -12.1238 H 1 RES   0.0000
1451 H -0.253776 -2.22146 -14.1502 H 1 RES   0.0000
1452 H 11.7841 -3.16719 0.0753962 H 1 RES   0.0000
1453 H -12.6198 -12.2157 6.85243 H 1 RES   0.0000
1454 H 0.495497 3.15598 0.172995 H 1 RES   0.0000
1455 H 5.71542 4.28119 13.1534 H 1 RES   0.0000
1456 H -12.9252 -1.83472 -8.13506 H 1 RES   0.0000
1457 H 6.60322 -14.128 3.17301 H 1 RES   0.0000
1458 H 12.4078 -11.2136 0.494605 H 1 RES   0.0000
1459 H -10.8941 -13.0238 3.95104 H 1 RES   0.0000
1460 H -14.5072 -0.549743 2.1288 H 1 RES   0.0000
1461 H 8.57458 10.5417 -9.68108 H 1 RES   0.0000
1462 H -14.0394 14.1223 1.75088 H 1 RES   0.0000
1463 H -10.9024 4.30368 -4.78938 H 1 RES   0.0000
1464 H 11.1052 7.03514 0.884792 H 1 RES   0.0000
1465 H -2.00759 2.60793 14.7229 H 1 RES   0.0000
1466 H -0.259413 -13.7671 -8.45271 H 1 RES   0.0000
1467 H -8.62511 -13.1873 12.7202 H 1 RES   0.0000
1468 H 5.70838 4.11246 -1.68269 H 1 RES   0.0000
1469 H -14.7296 -10.1829 14.4332 H 1 RES   0.0000
1470 H -3.49585 -6.62307 -3.09592 H 1 RES   0.0000
1471 H 5.23836 3.44594 -14.1731 H 1 RES   0.0000
1472 H -7.64902 -11.9134 9.82817 H 1 RES   0.0000
1473 H 9.83503 -9.92681 13.5245 H 1 RES   0.0000
1474 H -12.6315 4.60232 -2.69354 H 1 RES   0.0000
1475 H 6.36015 3.2858 -7.28662 H 1 RES   0.0000
1476 H -7.8706 -0.201164 -11.5675 H 1 RES   0.0000
1477 H -2.22357 -10.1511 7.49368 H 1 RES   0.0000
1478 H -2.40963 -8.16539 10.2351 H 1 RES   0.0000
1479 H -1.11043 -7.71983 -13.9729 H 1 RES   0.0000
1480 H 7.65632 -12.613 0.842792 H 1 RES   0.0000
1481 H -3.67336 8.57477 -4.90387 H 1 RES   0.0000
1482 H -7.89585 2.70672 -0.495749 H 1 RES   0.0000
1483 H -0.516649 2.56048 -3.84694 H 1 RES   0.0000
1484 H 7.22447 3.3478 -5.3052 H 1 RES   0.0000
1485 H 14.2322 -2.7934 6.82166 H 1 RES   0.0000
1486 H 0.889814 3.64949 -2.17013 H 1 RES   0.0000
1487 H 9.90312 7.79919 -5.52936 H 1 RES   0.0000
1488 H -12.1328 1.59245 -9.17855 H 1 RES   0.0000
1489 H -7.34442 -7.80426 13.6981 H 1 RES   0.0000
1490 H 14.2706 -1.69857 14.2038 H 1 RES   0.0000
1491 H -12.7812 -5.72406 12.4687 H 1 RES   0.0000
1492 H -13.9405 -12.4469 -0.304012 H 1 RES   0.0000
1493 H -4.81246 3.75333 4.49125 H 1 RES   0.0000
1494 H -9.51052 8.91625 -10.655 H 1 RES   0.0000
1495 H -14.3101 -6.2633 5.94856 H 1 RES   0.0000
1496 H 7.15232 0.985259 3.5925 H 1 RES   0.0000
1497 H 0.988201 14.6079 11.6646 H 1 RES   0.0000
1498 H 7.36019 8.60942 7.656 H 1 RES   0.0000
1499 H -2.44814 6.63607 9.85801 H 1 RES   0.0000
1500 H 1.81511 -14.3049 -11.5176 H 1 RES   0.0000
1501 H 12.1618 -14.1734 11.4915 H 1 RES   0.0000
1502 H 13.7412 -7.20967 14.4843 H 1 RES   0.0000
1503 H 3.3581 3.71248 -11.6033 H 1 RES   0.0000
1504 H 2.30786 1.6112 -3.37729 H 1 RES   0.0000
1505 H -7.46892 -14.089 14.7243 H 1 RES   0.0000
1506 H -4.10082 -6.55794 -14.2171 H 1 RES   0.0000
1507 H 5.83249 -11.8158 -11.9675 H 1 RES   0.0000
1508 H 0.416649 8.53662 3.91156 H 1 RES   0.0000
1509 H 9.89323 -4.20658 13.8165 H 1 RES   0.0000
1510 H 6.20691 -7.63749 4.85384 H 1 RES   0.0000
1511 H 10.7421 6.52099 -0.668025 H 1 RES   0.0000
1512 H 4.14817 13.9297 2.8964 H 1 RES   0.0000
1513 H -10.286 -5.67977 7.16437 H 1 RES   0.0000
1514 H 4.76215 -2.41642 2.43559 H 1 RES   0.0000
1515 H -13.1113 -7.25891 4.73828 H 1 RES   0.0000
1516 H 12.6286 -7.54169 0.962688 H 1 RES   0.0000
1517 H 12.3431 10.1713 2.08297 H 1 RES   0.0000
1518 H 5.02705 -14.3022 11.3018 H 1 RES   0.0000
1519 H 10.9698 8.89593 -2.71991 H 1 RES   0.0000
1520 H 1.79245 -9.16413 -1.89942 H 1 RES   0.0000
1521 H -6.29371 -3.4564 -0.846908 H 1 RES   0.0000
1522 H -13.7077 -8.78575 3.62735 H 1 RES   0.0000
1523 H 5.45204 -3.57644 -0.300101 H 1 RES   0.0000
1524 H -14.3495 -14.4972 -7.45221 H 1 RES   0.0000
1525 H -0.0392998 -10.0175 -0.175173 H 1 RES   0.0000
1526 H -0.821863 -12.9144 -1.16695 H 1 RES   0.0000
1527 H 14.5145 8.88639 -0.184997 H 1 RES   0.0000
1528 H 6.4561 -10.9991 -0.303302 H 1 RES   0.0000
1529 H -1.35203 3.56983 -10.1381 H 1 RES   0.0000
1530 H 4.08706 0.673942 -6.66681 H 1 RES   0.0000
1531 H 0.621148 9.52246 -10.4477 H 1 RES   0.0000
1532 H 6.87509 8.39642 10.3576 H 1 RES   0.0000
1533 H 14.4711 -4.20811 -14.3846 H 1 RES   0.0000
1534 H -3.94574 -4.32939 9.11715 H 1 RES   0.0000
1535 H -3.71211 -0.973389 7.63051 H 1 RES   0.0000
1536 H 12.8554 6.54124 2.4932 H 1 RES   0.0000
1537 H -8.83025 3.66409 1.29976 H 1 RES   0.0000
1538 H 8.39392 14.5748 0.893919 H 1 RES   0.0000
1539 H -2.13328 -6.91691 -12.1683 H 1 RES   0.0000
1540 H 14.521 -5.34926 13.8239 H 1 RES   0.0000
1541 H -0.994941 -5.90193 4.50398 H 1 RES   0.0000
1542 H -8.36118 11.1495 -3.38646 H 1 RES   0.0000
1543 H 14.6812 -10.1444 -5.75974 H 1 RES   0.0000
1544 H -3.79429 4.45193 -0.717569 H 1 RES   0.0000
1545 H 3.71278 -8.40973 1.68781 H 1 RES   0.0000
1546 H 7.64145 11.0508 -2.52804 H 1 RES   0.0000
1547 H 6.12405 -7.04331 1.2015 H 1 RES   0.0000
1548 H 1.631 -0.198828 -10.2003 H 1 RES   0.0000
1549 H 4.4885 -2.6304 6.34315 H 1 RES   0.0000
1550 H 13.4631 0.836166 -13.0708 H 1 RES   0.0000
1551 H 13.7093 -14.1939 -9.29574 H 1 RES   0.0000
1552 H -3.29354 -13.2479 -12.9256 H 1 RES   0.0000
1553 H 6.59758 -4.90251 13.211 H 1 RES   0.0000
1554 H 11.7478 2.97222 2.33665 H 1 RES   0.0000
1555 H 4.23763 -4.70529 10.1598 H 1 RES   0.0000
1556 H -2.0532 13.3745 -2.23587 H 1 RES   0.0000
1557 H -12.4202 0.00592704 -12.7303 H 1 RES   0.0000
1558 H -11.2395 -4.07542 -3.0798 H 1 RES   0.0000
1559 H 4.16238 9.05761 -10.918 H 1 RES   0.0000
1560 H -10.3636 9.17906 7.86757 H 1 RES   0.0000
1561 H 10.0271 -0.426124 -3.16397 H 1 RES   0.0000
1562 H 4.99731 -1.74342 14.8044 H 1 RES   0.0000
1563 H -8.3837 2.82464 -6.37661 H 1 RES   0.0000
1564 H -11.7355 8.83932 6.1619 H 1 RES   0.0000
1565 H -9.51594 -3.95281 5.07457 H 1 RES   0.0000
1566 H -13.5746 11.793 -6.60612 H 1 RES   0.0000
1567 H 4.02208 3.57923 -12.4701 H 1 RES   0.0000
1568 H 3.7314 -10.3302 7.08721 H 1 RES   0.0000
1569 H 10.9152 4.41773 -12.867 H 1 RES   0.0000
1570 H -4.74728 6.15899 8.78743 H 1 RES   0.0000
1571 H 6.45871 6.01761 7.77974 H 1 RES   0.0000
1572 H -8.98751 -10.0768 8.61365 H 1 RES   0.0000
1573 H 13.7642 0.606726 14.4422 H 1 RES   0.0000
1574 H 3.08602 14.2807 9.77275 H 1 RES   0.0000
1575 H 9.58021 -9.17896 -5.80646 H 1 RES   0.0000
1576 H -6.67783 -14.0856 2.70337 H 1 RES   0.0000
1577 H 2.29171 -8.41965 13.4455 H 1 RES   0.0000
1578 H -13.8232 12.0223 -2.52784 H 1 RES   0.0000
1579 H 1.29608 11.5802 -12.094 H 1 RES   0.0000
1580 H 0.391338 -3.88706 13.1074 H 1 RES   0.0000
1581 H 14.6918 -13.2946 4.90865 H 1 RES   0.0000
1582 H -7.46473 8.46975 5.34106 H 1 RES   0.0000
1583 H 3.86166 12.5583 -5.30222 H 1 RES   0.0000
1584 H 13.8733 -9.35144 -6.1051 H 1 RES   0.0000
1585 H 4.48272 -4.85934 6.15429 H 1 RES   0.0000
1586 H 2.09363 -9.26594 12.3776 H 1 RES   0.0000
1587 H -0.87753 5.13771 4.75252 H 1 RES   0.0000
1588 H -14.4748 -13.6357 3.95128 H 1 RES   0.0000
1589 H 7.68784 -9.7753 -5.32445 H 1 RES   0.0000
1590 H -5.85629 11.9722 -14.7623 H 1 RES   0.0000
1591 H -9.73448 5.8426 -5.5907 H 1 RES   0.0000
1592 H -3.86114 11.5592 2.06698 H 1 RES   0.0000
1593 H -14.5629 -2.44921 12.3996 H 1 RES   0.0000
1594 H -13.1372 -1.37523 0.387274 H 1 RES   0.0000
1595 H -12.3401 10.3757 -3.93925 H 1 RES   0.0000
1596 H 6.1537 8.6005 -12.5727 H 1 RES   0.0000
1597 H -1.64473 -4.70171 13.5566 H 1 RES   0.0000
1598 H 2.44218 13.9324 0.182943 H 1 RES   0.0000
1599 H -5.66944 -5.21993 11.7062 H 1 RES   0.0000
1600 H 9.81384 -10.2283 -10.2754 H 1 RES   0.0000
1601 H 1.16637 8.09068 -0.947534 H 1 RES   0.0000
1602 H -5.01994 8.05497 8.22658 H 1 RES   0.0000
1603 H -2.44398 6.43224 11.4092 H 1 RES   0.0000
1604 H -7.71766 -6.75017 14.117 H 1 RES   0.0000
1605 H 4.19583 2.48693 8.04034 H 1 RES   0.0000
1606 H -6.56965 -8.74096 -9.17024 H 1 RES   0.0000
1607 H -3.59935 0.795979 3.83037 H 1 RES   0.0000
1608 H 8.93127 -3.54881 0.159395 H 1 RES   0.0000
1609 H 12.845 -11.0488 12.6346 H 1 RES   0.0000
1610 H 2.9659 5.57638 2.16841 H 1 RES   0.0000
1611 H -1.88716 4.77728 2.79773 H 1 RES   0.0000
1612 H -6.6593 3.93522 -5.51742 H 1 RES   0.0000
1613 H -0.795083 -12.0923 -0.136852 H 1 RES   0.0000
1614 H 9.47126 -8.62324 8.203 H 1 RES   0.0000
1615 H 0.927939 -8.87265 10.0915 H 1 RES   0.0000
1616 H -0.800539 3.335 -2.44198 H 1 RES   0.0000
1617 H -8.49522 3.45847 -0.15408 H 1 RES   0.0000
1618 H -5.94386 -4.22736 13.6348 H 1 RES   0.0000
1619 H 1.85183 -5.85852 4.88268 H 1 RES   0.0000
1620 H 4.90908 7.33862 1.38113 H 1 RES   0.0000
1621 H 11.909 11.8576 -8.57142 H 1 RES   0.0000
1622 H 12.654 8.16062 8.72192 H 1 RES   0.0000
1623 H 11.0764 7.80469 -14.4006 H 1 RES   0.0000
1624 H -11.9051 8.29069 9.40077 H 1 RES   0.0000
1625 H 6.9782 -14.1663 14.726 H 1 RES   0.0000
1626 H 9.72731 -6.31636 10.6241 H 1 RES   0.0000
1627 H -2.52259 11.2526 -6.42598 H 1 RES   0.0000
1628 H 8.63401 8.24305 -1.01283 H 1 RES   0.0000
1629 H 13.3904 -7.22614 4.56195 H 1 RES   0.0000
1630 H -8.15316 -7.2891 -8.00328 H 1 RES   0.0000
1631 H 0.289077 3.16176 -12.7932 H 1 RES   0.0000
1632 H 0.453155 1.6879 9.89854 H 1 RES   0.0000
1633 H -13.6356 -7.689 13.8585 H 1 RES   0.0000
1634 H -12.8576 9.79272 -12.6333 H 1 RES   0.0000
1635 H 14.5446 -6.18747 -13.633 H 1 RES   0.0000
1636 H 8.08613 1.50453 4.98218 H 1 RES   0.0000
1637 H 10.9837 12.6042 0.322966 H 1 RES   0.0000
1638 H 11.3667 -0.0599161 -7.15006 H 1 RES   0.0000
1639 H -5.26604 9.51803 -14.6137 H 1 RES   0.0000
1640 H 11.1863 13.4456 13.4271 H 1 RES   0.0000
1641 H -6.1436 14.2103 4.03187 H 1 RES   0.0000
1642 H 0.222986 -12.5973 -6.04758 H 1 RES   0.0000
1643 H 4.83553 12.6324 -7.88442 H 1 RES   0.0000
1644 H 11.4222 8.40892 -4.72661 H 1 RES   0.0000
1645 H -0.689009 -8.58353 4.12229 H 1 RES   0.0000
1646 H -11.0185 -5.92382 13.0251 H 1 RES   0.0000
1647 H 2.59162 14.6882 -11.0989 H 1 RES   0.0000
1648 H -11.9046 -6.55943 5.53952 H 1 RES   0.0000
1649 H 8.02408 3.2434 11.9878 H 1 RES   0.0000
1650 H 3.77638 13.2854 0.237013 H 1 RES   0.0000
1651 H -2.67367 -4.31218 0.450691 H 1 RES   0.0000
1652 H -0.616719 -7.87919 -11.5548 H 1 RES   0.0000
1653 H 14.4255 9.80684 -6.2827 H 1 RES   0.0000
1654 H -1.77087 2.00334 -6.72851 H 1 RES   0.0000
1655 H -7.05208 -12.2835 -5.41985 H 1 RES   0.0000
1656 H -6.32461 -10.3158 -13.1463 H 1 RES   0.0000
1657 H -1.1408 -3.74455 5.92631 H 1 RES   0.0000
1658 H -4.16175 11.6572 0.0408488 H 1 RES   0.0000
1659 H -10.9871 -1.64175 -1.99485 H 1 RES   0.0000
1660 H 5.62699 6.84523 -14.0735 H 1 RES   0.0000
1661 H -3.89433 -13.5504 -14.4566 H 1 RES   0.0000
1662 H 3.5769 2.59096 3.86573 H 1 RES   0.0000
1663 H -6.71211 8.92798 -13.0083 H 1 RES   0.0000
1664 H 7.42824 -6.30813 7.15031 H 1 RES   0.0000
1665 H 5.58771 -12.6451 -8.92965 H 1 RES   0.0000
1666 H 14.5918 -12.8382 -11.2716 H 1 RES   0.0000
1667 H -10.5299 -7.84887 -1.96984 H 1 RES   0.0000
1668 H -7.64953 6.73323 -3.35993 H 1 RES   0.0000
1669 H -13.1874 -3.22289 12.0984 H 1 RES   0.0000
1670 H 11.6908 -7.98112 3.69207 H 1 RES   0.0000
1671 H -1.62982 -1.69594 6.45105 H 1 RES   0.0000
1672 H 12.7458 14.6829 6.37275 H 1 RES   0.0000
1673 H 2.22809 13.0061 -2.58784 H 1 RES   0.0000
1674 H 5.7035 11.0843 4.85021 H 1 RES   0.0000
1675 H -7.06422 9.13242 -1.93767 H 1 RES   0.0000
1676 H -2.0241 2.80609 -5.90517 H 1 RES   0.0000
1677 H 14.6788 -8.79274 3.38916 H 1 RES   0.0000
1678 H -9.49976 -3.04389 7.63715 H 1 RES   0.0000
1679 H -14.3184 12.2251 -11.6449 H 1 RES   0.0000
1680 H 9.39273 -14.4321 11.554 H 1 RES   0.0000
1681 H 2.25451 6.62631 8.76117 H 1 RES   0.0000
1682 H 6.92207 1.4335 7.66519 H 1 RES   0.0000
1683 H 4.64351 3.25617 -1.29283 H 1 RES   0.0000
1684 H -14.6756 -4.70836 -11.4675 H 1 RES   0.0000
1685 H 11.3364 12.4343 3.52471 H 1 RES   0.0000
1686 H 4.08252 6.77327 -3.053 H 1 RES   0.0000
1687 H 10.1189 -14.0658 -1.03831 H 1 RES   0.0000
1688 H 10.3115 -8.94466 -9.2522 H 1 RES   0.0000
1689 H 0.000757546 6.6479 11.5524 H 1 RES   0.0000
1690 H -8.97725 12.041 -12.6761 H 1 RES   0.0000
1691 H 13.2202 -3.05867 14.6459 H 1 RES   0.0000
1692 H 13.1281 -7.48411 -8.9679 H 1 RES   0.0000
1693 H 9.84362 -6.54162 -0.833469 H 1 RES   0.0000
1694 H -11.0909 -5.68956 8.1728 H 1 RES   0.0000
1695 H 13.0142 -11.5798 -14.3745 H 1 RES   0.0000
1696 H -10.9959 7.25718 -3.64662 H 1 RES   0.0000
1697 H -11.388 -5.22512 9.14334 H 1 RES   0.0000
1698 H -4.27014 -2.58285 -6.21057 H 1 RES   0.0000
1699 H 10.7073 1.63849 -8.0912 H 1 RES   0.0000
1700 H 2.1454 3.05131 13.4923 H 1 RES   0.0000
1701 H 4.55205 -0.103409 -10.5586 H 1 RES   0.0000
1702 H -1.78196 8.81122 11.2696 H 1 RES   0.0000
1703 H -7.73219 -13.8343 13.7099 H 1 RES   0.0000
1704 H -8.05133 -6.63609 11.1213 H 1 RES   0.0000
1705 H -10.981 -9.06838 1.66185 H 1 RES   0.0000
1706 H -0.19836 13.5901 0.415264 H 1 RES   0.0000
1707 H -7.89488 8.40961 14.6197 H 1 RES   0.0000
1708 H -8.53598 -2.47773 -9.60605 H 1 RES   0.0000
1709 H 6.00848 -2.79299 0.416217 H 1 RES   0.0000
1710 H -6.98811 -13.3118 -1.64558 H 1 RES   0.0000
1711 H -8.96423 8.89067 -13.6532 H 1 RES   0.0000
1712 H -12.7921 6.04836 12.106 H 1 RES   0.0000
1713 H 6.22723 14.0786 -6.72449 H 1 RES   0.0000
1714 H 7.66846 -11.9438 -12.8651 H 1 RES   0.0000
1715 H -5.59085 13.1783 -13.2126 H 1 RES   0.0000
1716 H -3.382 8.75274 4.9767 H 1 RES   0.0000
1717 H -9.05791 -11.5876 -7.83207 H 1 RES   0.0000
1718 H -4.69938 -8.81605 9.46692 H 1 RES   0.0000
1719 H 2.4664 -10.5256 12.3769 H 1 RES   0.0000
1720 H 1.68068 11.3449 2.72627 H 1 RES   0.0000
1721 H -4.33295 -8.38371 0.907541 H 1 RES   0.0000
1722 H 5.42186 10.3192 -0.333285 H 1 RES   0.0000
1723 H 5.59791 12.1813 10.3068 H 1 RES   0.0000
1724 H 12.8859 -0.518746 -3.80497 H 1 RES   0.0000
1725 H -7.0187 3.11705 7.66296 H 1 RES   0.0000
1726 H 0.147713 -9.81829 -12.0913 H 1 RES   0.0000
1727 H -5.40929 3.57752 -14.3031 H 1 RES   0.0000
1728 H -12.3622 2.06397 10.6026 H 1 RES   0.0000
1729 H -6.21053 2.28113 -3.77601 H 1 RES   0.0000
1730 H 14.2108 -2.49029 -11.659 H 1 RES   0.0000
1731 H -8.59479 13.5763 13.561 H 1 RES   0.0000
1732 H 13.1742 2.18617 -1.50452 H 1 RES   0.0000
1733 H 13.8085 -0.119176 3.7326 H 1 RES   0.0000
1734 H 6.35858 12.6717 0.452772 H 1 RES   0.0000
1735 H 3.224 -1.22798 2.28634 H 1 RES   0.0000
1736 H 13.595 4.48265 -14.3223 H 1 RES   0.0000
1737 H 8.43369 -5.62924 -13.1243 H 1 RES   0.0000
1738 H 10.3706 6.82596 11.0956 H 1 RES   0.0000
1739 H -2.30408 -8.63722 -3.59298 H 1 RES   0.0000
1740 H 3.36583 13.6684 -2.22973 H 1 RES   0.0000
1741 H -8.41004 -3.60355 -14.7753 H 1 RES   0.0000
1742 H -10.7389 3.9941 -8.22876 H 1 RES   0.0000
1743 H -7.331 -3.47273 7.79807 H 1 RES   0.0000
1744 H 13.7024 -9.12577 -8.142 H 1 RES   0.0000
1745 H 7.41782 10.4887 -10.3636 H 1 RES   0.0000
1746 H -11.6169 11.2819 2.17454 H 1 RES   0.0000
1747 H 6.96657 5.80002 -13.6631 H 1 RES   0.0000
1748 H -10.1851 12.5704 -0.698972 H 1 RES   0.0000
1749 H 11.7716 4.08892 13.6639 H 1 RES   0.0000
1750 H 12.3668 -11.3975 14.5242 H 1 RES   0.0000
1751 H -9.76956 -7.63833 4.75147 H 1 RES   0.0000
1752 H -0.272964 -4.41999 -3.58363 H 1 RES   0.0000
1753 H 0.647198 2.49639 -3.76263 H 1 RES   0.0000
1754 H 11.4453 0.76587 8.69671 H 1 RES   0.0000
1755 H -4.23056 14.4408 -12.1504 H 1 RES   0.0000
1756 H -2.22755 7.53641 -1.97597 H 1 RES   0.0000
1757 H -11.8352 12.888 -3.6668 H 1 RES   0.0000
1758 H -14.7226 6.25487 -9.5158 H 1 RES   0.0000
1759 H -3.34658 9.71294 -8.40748 H 1 RES   0.0000
1760 H -0.694647 14.8305 0.0402099 H 1 RES   0.0000
1761 H -9.9609 8.44441 9.2355 H 1 RES   0.0000
1762 H -8.63189 12.0981 0.623566 H 1 RES   0.0000
1763 H -11.4501 11.0481 -11.0009 H 1 RES   0.0000
1764 H -3.74903 9.39844 12.4441 H 1 RES   0.0000
1765 H 2.41106 2.28576 -10.7239 H 1 RES   0.0000
1766 H -13.1815 3.21042 -13.0645 H 1 RES   0.0000
1767 H -3.29234 -1.19592 14.7012 H 1 RES   0.0000
1768 H 7.83113 -9.00349 11.8549 H 1 RES   0.0000
1769 H -13.9984 -6.78985 -8.00378 H 1 RES   0.0000
1770 H -7.46128 8.20496 -2.42964 H 1 RES   0.0000
1771 H -6.1124 9.51179 -2.23576 H 1 RES   0.0000
1772 H 11.2578 0.548128 11.0041 H 1 RES   0.0000
1773 H -6.21196 -3.24195 0.169664 H 1 RES   0.0000
1774 H 12.4986 8.44967 -7.2712 H 1 RES   0.0000
1775 H 5.84739 -3.63256 2.7257 H 1 RES   0.0000
1776 H -10.1826 11.419 -6.2404 H 1 RES   0.0000
1777 H -8.05148 -11.6264 -5.40441 H 1 RES   0.0000
1778 H 7.42184 -5.42454 12.9359 H 1 RES   0.0000
1779 H -6.69786 -12.5086 -14.7921 H 1 RES   0.0000
1780 H 5.04613 7.87657 -8.35101 H 1 RES   0.0000
1781 H -1.33106 -2.11849 7.38382 H 1 RES   0.0000
1782 H -1.78815 13.2281 7.28484 H 1 RES   0.0000
1783 H 11.1239 -11.8781 3.02704 H 1 RES   0.0000
1784 H 1.10154 -9.33046 -0.790599 H 1 RES   0.0000
1785 H -14.2842 7.42102 11.8075 H 1 RES   0.0000
1786 H 11.6476 -4.77086 -12.7223 H 1 RES   0.0000
1787 H -12.6295 7.94279 2.89303 H 1 RES   0.0000
1788 H 6.51368 3.58093 -12.4611 H 1 RES   0.0000
1789 H -10.2046 8.19444 -4.09096 H 1 RES   0.0000
1790 H 5.73379 -14.8346 -10.1896 H 1 RES   0.0000
1791 H -4.18477 -14.0872 -5.18636 H 1 RES   0.0000
1792 H 4.89347 -7.9878 -5.34308 H 1 RES   0.0000
1793 H -2.21601 8.12067 -5.98408 H 1 RES   0.0000
1794 H -6.70667 -5.38286 -5.40444 H 1 RES   0.0000
1795 H 14.3953 -11.0619 2.36369 H 1 RES   0.0000
1796 H -9.58046 11.9011 -5.44413 H 1 RES   0.0000
1797 H 1.72513 6.90992 5.00062 H 1 RES   0.0000
1798 H 10.0177 0.407721 -13.1044 H 1 RES   0.0000
1799 H -12.765 -0.339604 -9.88366 H 1 RES   0.0000
1800 H 1.06796 -2.09657 3.16486 H 1 RES   0.0000
1801 H 7.71843 -4.83601 -3.54424 H 1 RES   0.0000
1802 H -7.80115 -4.85455 -5.54458 H 1 RES   0.0000
1803 H 1.63894 -2.22585 1.88354 H 1 RES   0.0000
1804 H -4.46315 -13.4741 -2.65795 H 1 RES   0.0000
1805 H 10.3083 13.14 -5.19511 H 1 RES   0.0000
1806 H -1.28712 -8.5595 6.04321 H 1 RES   0.0000
1807 H 11.7593 -3.40514 10.4731 H 1 RES   0.0000
1808 H 1.44337 9.95814 4.43407 H 1 RES   0.0000
1809 H -7.6504 5.27547 -7.64335 H 1 RES   0.0000
1810 H 14.5387 -4.04522 8.86825 H 1 RES   0.0000
1811 H -9.51307 -12.2455 -6.19094 H 1 RES   0.0000
1812 H -8.24683 -7.20542 0.132532 H 1 RES   0.0000
1813 H 9.11625 -11.3898 -8.67066 H 1 RES   0.0000
1814 H 8.61847 -10.8949 -13.3359 H 1 RES   0.0000
1815 H 8.32592 7.12543 -1.18309 H 1 RES   0.0000
1816 H 8.63852 3.84865 3.2449 H 1 RES   0.0000
1817 H 13.3348 2.83837 -0.534078 H 1 RES   0.0000
1818 H 13.1768 -0.349643 -13.1814 H 1 RES   0.0000
1819 H -12.1328 -4.60016 -5.722 H 1 RES   0.0000
1820 H 12.5324 -8.5789 -7.91365 H 1 RES   0.0000
1821 H 14.4732 -10.4141 -6.72952 H 1 RES   0.0000
1822 H -2.00231 -10.3266 1.453 H 1 RES   0.0000
1823 H 1.0094 7.25723 11.6345 H 1 RES   0.0000
1824 H 11.585 7.96495 -1.85065 H 1 RES   0.0000
1825 H 8.33069 -3.98445 -7.97818 H 1 RES   0.0000
1826 H 0.0532216 -13.7751 3.68921 H 1 RES   0.0000
1827 H -13.8773 -2.01023 -4.95489 H 1 RES   0.0000
1828 H 7.49796 2.4061 -0.710748 H 1 RES   0.0000
1829 H 9.60557 -5.50555 6.22392 H 1 RES   0.0000
1830 H -5.47732 2.82571 2.5312 H 1 RES   0.0000
1831 H 3.11309 -8.58613 -7.30005 H 1 RES   0.0000
1832 H 1.77368 -9.90824 -12.197 H 1 RES   0.0000
1833 H -0.848972 13.2353 -3.41603 H 1 RES   0.0000
1834 H -12.5291 -2.32631 8.78789 H 1 RES   0.0000
1835 H -6.61896 -3.31651 -6.90886 H 1 RES   0.0000
1836 H 7.98676 -5.08646 13.9124 H 1 RES   0.0000
1837 H 0.412622 8.13281 -6.99157 H 1 RES   0.0000
1838 H 10.3155 7.40176 -4.71646 H 1 RES   0.0000
1839 H 12.326 -5.82687 -1.861 H 1 RES   0.0000
1840 H -5.87348 4.91863 -10.5368 H 1 RES   0.0000
1841 H 13.4244 -6.00728 14.6795 H 1 RES   0.0000
1842 H -2.3115 -3.6043 8.94303 H 1 RES   0.0000
1843 H 13.8048 5.1473 12.4383 H 1 RES   0.0000
1844 H 5.32557 9.24603 3.77559 H 1 RES   0.0000
1845 H -11.7959 -2.29997 -1.08906 H 1 RES   0.0000
1846 H 11.8663 -9.68638 6.26678 H 1 RES   0.0000
1847 H -9.57965 14.164 -4.42333 H 1 RES   0.0000
1848 H 1.19026 -7.20317 3.38733 H 1 RES   0.0000
1849 H -0.875742 6.46866 9.3087 H 1 RES   0.0000
1850 H 4.37916 13.6804 5.32679 H 1 RES   0.0000
1851 H 3.95285 -8.11566 -3.42536 H 1 RES   0.0000
1852 H -5.60342 9.26974 -13.6883 H 1 RES   0.0000
1853 H 7.32147 -9.86333 -12.1679 H 1 RES   0.0000
1854 H -0.387168 9.04223 3.81447 H 1 RES   0.0000
1855 H 14.3327 -4.52319 11.2166 H 1 RES   0.0000
1856 H -7.53649 -12.035 -13.0344 H 1 RES   0.0000
1857 H -8.62386 13.5074 -13.8919 H 1 RES   0.0000
1858 H 1.8205 -13.6224 14.1111 H 1 RES   0.0000
1859 H -13.9326 8.6612 -11.6456 H 1 RES   0.0000
1860 H -13.8986 1.32469 -4.47971 H 1 RES   0.0000
1861 H -1.14075 7.94375 11.0811 H 1 RES   0.0000
1862 H -10.1135 11.8155 -14.3803 H 1 RES   0.0000
1863 H 12.7283 9.45268 -9.13767 H 1 RES   0.0000
1864 H 12.6009 -7.37335 -7.81358 H 1 RES   0.0000
1865 H -6.28102 1.63699 -5.45544 H 1 RES   0.0000
1866 H 9.74533 -7.2025 14.178 H 1 RES   0.0000
1867 H -2.33246 4.62594 10.6101 H 1 RES   0.0000
1868 H 12.7706 9.38713 10.6699 H 1 RES   0.0000
1869 H -13.0529 10.9211 0.732307 H 1 RES   0.0000
1870 H 8.61517 -6.73041 9.02603 H 1 RES   0.0000
1871 H -6.60529 -13.3092 3.4169 H 1 RES   0.0000
1872 H -13.3928 -1.86702 -6.57006 H 1 RES   0.0000
1873 H -13.0407 -7.00141 -8.79767 H 1 RES   0.0000
1874 H -7.23715 -10.6974 13.0216 H 1 RES   0.0000
1875 H 12.5506 4.42933 -11.8022 H 1 RES   0.0000
1876 H -4.86296 10.1287 11.5453 H 1 RES   0.0000
1877 H 14.501 13.8587 -12.9159 H 1 RES   0.0000
1878 H 5.51698 -4.57762 -0.918399 H 1 RES   0.0000
1879 H 2.17148 0.245712 -7.77828 H 1 RES   0.0000
1880 H 7.99069 -7.81893 -7.94772 H 1 RES   0.0000
1881 H 10.1825 6.36908 -10.7205 H 1 RES   0.0000
1882 H 7.10896 6.05387 -5.70617 H 1 RES   0.0000
1883 H -6.69727 -14.4049 4.03033 H 1 RES   0.0000
1884 H 5.52423 7.20923 -13.0472 H 1 RES   0.0000
1885 H 8.01126 2.04582 -14.79 H 1 RES   0.0000
1886 H -9.09729 -14.2648 -12.748 H 1 RES   0.0000
1887 H 1.54892 -11.6455 -5.17283 H 1 RES   0.0000
1888 H 12.6721 10.7107 8.59564 H 1 RES   0.0000
1889 H 14.3062 11.2776 -2.9484 H 1 RES   0.0000
1890 H -3.22207 -7.29428 -12.9107 H 1 RES   0.0000
1891 H -4.351 -1.60884 5.06172 H 1 RES   0.0000
1892 H -4.19126 6.61556 -3.11953 H 1 RES   0.0000
1893 H -6.61634 -7.78147 0.322454 H 1 RES   0.0000
1894 H 3.60798 9.45846 -13.4804 H 1 RES   0.0000
1895 H 8.4904 3.71853 -10.3813 H 1 RES   0.0000
1896 H 12.5495 -1.83483 -1.92496 H 1 RES   0.0000
1897 H -2.46987 -13.7536 8.61526 H 1 RES   0.0000
1898 H 4.64463 7.88907 13.59 H 1 RES   0.0000
1899 H -13.9334 -9.04525 -7.40099 H 1 RES   0.0000
1900 H 11.6595 -2.47474 -11.9925 H 1 RES   0.0000
1901 H 3.20317 -2.81995 -9.36395 H 1 RES   0.0000
1902 H -5.68049 12.0871 -9.66204 H 1 RES   0.0000
1903 H 6.48872 -4.58602 14.1663 H 1 RES   0.0000
1904 H 9.95897 5.31631 10.3543 H 1 RES   0.0000
1905 H 4.60301 9.41569 -13.9799 H 1 RES   0.0000
1906 H -9.41028 7.36589 -11.3174 H 1 RES   0.0000
1907 H -9.28129 -7.22678 -1.12731 H 1 RES   0.0000
1908 H 10.129 14.3845 11.6394 H 1 RES   0.0000
1909 H 14.6983 -12.4738 2.63449 H 1 RES   0.0000
1910 H -5.50951 11.8487 -1.72817 H 1 RES   0.0000
1911 H 2.71848 14.7472 6.93674 H 1 RES   0.0000
1912 H 4.77532 12.6734 -2.78432 H 1 RES   0.0000
1913 H 8.43576 7.95138 -9.57866 H 1 RES   0.0000
1914 H 9.77178 11.7718 7.06727 H 1 RES   0.0000
1915 H 9.1068 -4.93428 9.9904 H 1 RES   0.0000
1916 H -8.31976 0.802083 -5.26022 H 1 RES   0.0000
1917 H -10.7871 9.91566 -3.37998 H 1 RES   0.0000
1918 H -5.20126 -0.697797 8.13546 H 1 RES   0.0000
1919 H -11.2193 -12.4674 2.04302 H 1 RES   0.0000
1920 H -6.72971 10.3046 -9.98137 H 1 RES   0.0000
1921 H -5.44959 -3.98621 -6.75602 H 1 RES   0.0000
1922 H -11.4052 -7.41436 10.5695 H 1 RES   0.0000
1923 H -5.81902 3.78972 -3.79046 H 1 RES   0.0000
1924 H 8.45771 -9.21434 -5.0989 H 1 RES   0.0000
1925 H 10.1841 -7.54149 -1.34561 H 1 RES   0.0000
1926 H -12.0065 14.0859 -13.2465 H 1 RES   0.0000
1927 H -7.01117 -5.15481 -9.39221 H 1 RES   0.0000
1928 H -6.13781 -12.8118 -6.04 H 1 RES   0.0000
1929 H 10.8664 -10.9852 -11.8548 H 1 RES   0.0000
1930 H 7.58371 8.7598 -13.0514 H 1 RES   0.0000
1931 H -6.49625 -1.02703 -0.279717 H 1 RES   0.0000
1932 H -9.2735 14.4907 -12.4748 H 1 RES   0.0000
1933 H -13.5003 -14.8027 10.3728 H 1 RES   0.0000
1934 H -2.07622 -2.43698 4.25278 H 1 RES   0.0000
1935 H -13.5078 6.0376 10.58 H 1 RES   0.0000
1936 H 1.16021 -6.67771 -13.4093 H 1 RES   0.0000
1937 H 14.4201 -1.95537 7.96536 H 1 RES   0.0000
1938 H 2.27893 11.5055 -7.3232 H 1 RES   0.0000
1939 H -3.24456 -10.1261 5.67932 H 1 RES   0.0000
1940 H -6.5189 0.51312 -4.78394 H 1 RES   0.0000
1941 H -3.29783 -4.63607 4.76694 H 1 RES   0.0000
1942 H 4.5729 -2.88914 4.9601 H 1 RES   0.0000
1943 H 6.76141 -10.698 -5.47432 H 1 RES   0.0000
1944 H 12.8978 -0.989973 -11.3194 H 1 RES   0.0000
1945 H 14.5559 4.30577 13.6945 H 1 RES   0.0000
1946 H -13.1145 3.23659 -9.83104 H 1 RES   0.0000
1947 H 11.1397 -0.448321 -14.7168 H 1 RES   0.0000
1948 H 2.57626 10.0324 -5.63553 H 1 RES   0.0000
1949 H -8.80719 10.2967 -1.69855 H 1 RES   0.0000
1950 H -4.40594 10.982 -8.1669 H 1 RES   0.0000
1951 H -1.31425 -3.57009 -8.1239 H 1 RES   0.0000
1952 H 6.24726 9.50127 -10.4732 H 1 RES   0.0000
1953 H 2.20572 3.78901 3.13741 H 1 RES   0.0000
1954 H -1.27843 -5.75511 -8.03757 H 1 RES   0.0000
1955 H -13.0918 0.830619 -12.3716 H 1 RES   0.0000
1956 H -6.70864 12.6541 10.0376 H 1 RES   0.0000
1957 H 13.031 1.72612 11.337 H 1 RES   0.0000
1958 H -6.78945 3.55187 -13.4966 H 1 RES   0.0000
1959 H -0.134775 8.93063 -12.6894 H 1 RES   0.0000
1960 H 13.6059 -1.5313 -12.3294 H 1 RES   0.0000
1961 H 13.539 -14.3529 4.00184 H 1 RES   0.0000
1962 H -2.14269 4.01562 -10.5477 H 1 RES   0.0000
1963 H -4.85555 -6.97849 8.8776 H 1 RES   0.0000
1964 H 2.48813 -8.70465 -8.17366 H 1 RES   0.0000
1965 H -0.533151 -7.53977 -7.22801 H 1 RES   0.0000
1966 H 10.6926 -4.0569 0.20179 H 1 RES   0.0000
1967 H -14.403 8.12604 -0.467192 H 1 RES   0.0000
1968 H 5.51033 12.0897 4.1771 H 1 RES   0.0000
1969 H 1.35317 2.78119 -4.57875 H 1 RES   0.0000
1970 H 13.5482 0.299108 6.66968 H 1 RES   0.0000
1971 H -5.28096 -3.37358 8.34785 H 1 RES   0.0000
1972 H -3.13005 8.25005 6.99655 H 1 RES   0.0000
1973 H -1.04158 -3.96218 -9.3567 H 1 RES   0.0000
1974 H 10.4334 5.20289 1.15239 H 1 RES   0.0000
1975 H 4.10735 6.35542 8.0754 H 1 RES   0.0000
1976 H 0.0363588 -10.402 13.9869 H 1 RES   0.0000
1977 H 9.00054 1.18078 -6.52323 H 1 RES   0.0000
1978 H -11.2642 8.61926 -13.5026 H 1 RES   0.0000
1979 H -8.28699 -5.30983 2.47361 H 1 RES   0.0000
1980 H -12.7543 0.712707 -5.98712 H 1 RES   0.0000
1981 H 6.66617 -0.115621 10.6773 H 1 RES   0.0000
1982 H -3.9124 -7.42916 12.6315 H 1 RES   0.0000
1983 H -3.60415 3.11171 -10.3697 H 1 RES   0.0000
1984 H -4.65009 -6.81065 0.736512 H 1 RES   0.0000
1985 H 8.53623 6.15534 -10.564 H 1 RES   0.0000
1986 H -5.8447 4.22544 -13.6804 H 1 RES   0.0000
1987 H -1.91584 4.1065 -14.7842 H 1 RES   0.0000
1988 H 10.829 9.00548 -6.95305 H 1 RES   0.0000
1989 H -11.9532 -4.1015 -8.15178 H 1 RES   0.0000
1990 H 7.09411 10.804 3.2675 H 1 RES   0.0000
1991 H -9.5046 -13.979 0.0454182 H 1 RES   0.0000
1992 H 2.69055 -4.16297 11.181 H 1 RES   0.0000
1993 H 2.77082 -10.1528 -12.2122 H 1 RES   0.0000
1994 H 1.67092 -10.6519 -14.6809 H 1 RES   0.0000
1995 H 0.682052 4.89771 9.84972 H 1 RES   0.0000
1996 H 1.99205 13.0696 13.6618 H 1 RES   0.0000
1997 H -2.70216 10.5739 -4.39567 H 1 RES   0.0000
1998 H 13.6126 -14.3951 -2.99757 H 1 RES   0.0000
1999 H 14.2543 11.0559 -5.98829 H 1 RES   0.0000
2000 H -5.12014 -9.51694 13.1162 H 1 RES   0.0000
2001 H -4.51781 13.2233 -10.3581 H 1 RES   0.0000
2002 H -11.5599 6.66403 2.17431 H 1 RES   0.0000
2003 H 13.6926 12.3431 4.33005 H 1 RES   0.0000
2004 H 4.17171 -13.5993 -0.522888 H 1 RES   0.0000
2005 H -6.68667 -12.113 6.64095 H 1 RES   0.0000
2006 H 13.9972 -14.3726 -0.313216 H 1 RES   0.0000
2007 H -14.4468 -7.79095 8.51759 H 1 RES   0.0000
2008 H 12.3848 4.34239 1.87478 H 1 RES   0.0000
2009 H 2.70302 -8.01934 14.3253 H 1 RES   0.0000
2010 H -8.12427 7.43625 14.1885 H 1 RES   0.0000
2011 H -6.01049 -6.17938 -0.607199 H 1 RES   0.0000
2012 H -4.60491 10.7719 -14.7664 H 1 RES   0.0000
2013 H 12.7846 -8.25011 -4.77204 H 1 RES   0.0000
2014 H -14.5395 7.08631 -10.1365 H 1 RES   0.0000
2015 H 5.49371 4.41457 2.02825 H 1 RES   0.0000
2016 H 7.32989 -12.7803 -3.56836 H 1 RES   0.0000
2017 H -13.2132 0.344009 9.5228 H 1 RES   0.0000
2018 H -5.62089 7.80596 -1.02021 H 1 RES   0.0000
2019 H 10.0354 8.76488 -13.0677 H 1 RES   0.0000
2020 H 1.12002 4.62914 11.8768 H 1 RES   0.0000
2021 H 2.07621 14.2012 -9.47279 H 1 RES   0.0000
2022 H 5.37034 -0.200227 -2.73268 H 1 RES   0.0000
2023 H 13.4745 -10.2938 -2.85822 H 1 RES   0.0000
2024 H 8.60545 2.70977 14.4828 H 1 RES   0.0000
2025 H -9.96415 1.26349 0.571796 H 1 RES   0.0000
2026 H 10.9704 -10.9953 9.5557 H 1 RES   0.0000
2027 H -6.00587 -4.79469 -8.61272 H 1 RES   0.0000
2028 H 10.8582 -6.57423 -12.623 H 1 RES   0.0000
2029 H 11.084 -1.44175 -11.8503 H 1 RES   0.0000
2030 H -3.96636 -6.7038 1.71189 H 1 RES   0.0000
2031 H -7.7816 0.734763 -10.9785 H 1 RES   0.0000
2032 H 12.6427 2.34746 3.23361 H 1 RES   0.0000
2033 H 2.50564 -10.155 13.9594 H 1 RES   0.0000
2034 H -13.1712 -9.64932 -3.90855 H 1 RES   0.0000
2035 H 1.87621 9.57584 -14.1681 H 1 RES   0.0000
2036 H 4.37543 -5.87071 4.69853 H 1 RES   0.0000
2037 H -14.4304 1.42353 0.679429 H 1 RES   0.0000
2038 H 13.9852 -6.82707 1.62663 H 1 RES   0.0000
2039 H 12.5793 0.330772 2.91058 H 1 RES   0.0000
2040 H 11.9105 -14.5139 -0.250508 H 1 RES   0.0000
2041 H 4.98826 12.3857 -0.221383 H 1 RES   0.0000
2042 H -6.70723 10.6791 -12.096 H 1 RES   0.0000
2043 H -10.4404 12.91 -12.0323 H 1 RES   0.0000
2044 H -9.38145 8.91067 -2.97981 H 1 RES   0.0000
2045 H -8.28342 7.59294 -9.40461 H 1 RES   0.0000
2046 H 8.79579 1.67847 9.53919 H 1 RES   0.0000
2047 H -0.592881 4.62022 9.65871 H 1 RES   0.0000
2048 H -7.82589 -6.23405 12.9805 H 1 RES   0.0000
2049 H -3.85042 -9.21054 -4.47298 H 1 RES   0.0000
2050 H -3.96529 0.316218 -10.396 H 1 RES   0.0000
2051 H -2.51251 11.5767 10.153 H 1 RES   0.0000
2052 H 11.906 7.79439 6.96895 H 1 RES   0.0000
2053 H 6.02188 0.926652 8.04285 H 1 RES   0.0000
2054 H -10.2908 9.48545 5.74351 H 1 RES   0.0000
2055 H 0.170058 1.50966 -0.112016 H 1 RES   0.0000
2056 H 14.2754 12.6813 -7.52965 H 1 RES   0.0000
2057 H 8.63088 13.7558 12.9175 H 1 RES   0.0000
2058 H -7.76907 -13.9127 4.08135 H 1 RES   0.0000
2059 H 4.41092 -2.04862 9.78527 H 1 RES   0.0000
2060 H -12.8653 0.344913 1.62343 H 1 RES   0.0000
2061 H 11.7312 9.62583 11.4527 H 1 RES   0.0000
2062 H 9.3562 -11.7863 -1.41575 H 1 RES   0.0000
2063 H -12.3612 13.7236 11.2309 H 1 RES   0.0000
2064 H 8.22175 11.0447 -7.22195 H 1 RES   0.0000
2065 H 3.42587 -3.57373 10.4678 H 1 RES   0.0000
2066 H 5.6598 -13.264 -0.829134 H 1 RES   0.0000
2067 H -12.9672 -13.1348 -9.34242 H 1 RES   0.0000
2068 H 7.44793 10.6631 11.7977 H 1 RES   0.0000
2069 H 10.8968 9.26443 -13.6173 H 1 RES   0.0000
2070 H 11.2466 5.57709 8.39418 H 1 RES   0.0000
2071 H 7.44273 13.7933 6.11381 H 1 RES   0.0000
2072 H -6.13335 -0.913848 9.22442 H 1 RES   0.0000
2073 H 1.67178 -9.63776 10.8672 H 1 RES   0.0000
2074 H -13.1619 3.33635 -2.1679 H 1 RES   0.0000
2075 H -5.39012 2.80016 -11.9328 H 1 RES   0.0000
2076 H -6.94008 -10.1915 -8.76428 H 1 RES   0.0000
2077 H 10.4881 0.140844 -4.26574 H 1 RES   0.0000
2078 H 3.94427 -14.1741 4.74742 H 1 RES   0.0000
2079 H 13.9526 -10.5974 -3.94636 H 1 RES   0.0000
2080 H 4.82688 4.91349 0.265298 H 1 RES   0.0000
2081 H 5.17139 9.61067 11.3151 H 1 RES   0.0000
2082 H -1.76087 7.04357 14.3539 H 1 RES   0.0000
2083 H 9.52781 14.8257 -3.63957 H 1 RES   0.0000
2084 H 4.32823 -4.15043 -13.2534 H 1 RES   0.0000
2085 H 7.92652 -3.39711 -11.1594 H 1 RES   0.0000
2086 H -5.07086 -7.66291 -5.65397 H 1 RES   0.0000
2087 H -12.35 8.71027 8.1943 H 1 RES   0.0000
2088 H 1.03785 -5.25629 11.3536 H 1 RES   0.0000
2089 H 6.61718 10.3313 8.514 H 1 RES   0.0000
2090 H 1.89431 -2.68597 12.4112 H 1 RES   0.0000
2091 H 8.54308 -13.0719 12.8596 H 1 RES   0.0000
2092 H -12.3568 5.2995 10.9953 H 1 RES   0.0000
2093 H -8.87838 9.84407 -2.78843 H 1 RES   0.0000
2094 H 4.43275 -9.31861 -13.287 H 1 RES   0.0000
2095 H 4.49271 -6.53557 12.2794 H 1 RES   0.0000
2096 H 2.63977 3.46179 -0.394211 H 1 RES   0.0000
2097 H -3.00969 1.36786 7.33589 H 1 RES   0.0000
2098 H 13.7931 10.7397 2.5992 H 1 RES   0.0000
2099 H -6.31138 10.2127 -6.72701 H 1 RES   0.0000
2100 H 8.87662 13.9687 14.8081 H 1 RES   0.0000
2101 H 7.17515 4.16921 -13.3836 H 1 RES   0.0000
2102 H -9.66336 1.14511 -7.84607 H 1 RES   0.0000
2103 H 12.2098 -4.33981 10.5919 H 1 RES   0.0000
2104 H 2.30927 13.5456 -14.488 H 1 RES   0.0000
2105 H 4.2378 4.39276 14.2531 H 1 RES   0.0000
2106 H -2.30242 -8.44712 -12.0152 H 1 RES   0.0000
2107 H -5.11677 -3.9481 -2.03448 H 1 RES   0.0000
2108 H -0.33162 9.88509 -9.27038 H 1 RES   0.0000
2109 H -7.13295 11.7023 12.6664 H 1 RES   0.0000
2110 H -2.0937 -7.90202 -6.31459 H 1 RES   0.0000
2111 H -6.48793 -9.54524 7.85618 H 1 RES   0.0000
2112 H 7.98138 3.40079 10.6737 H 1 RES   0.0000
2113 H 4.20412 8.45944 10.4715 H 1 RES   0.0000
2114 H -1.60347 -13.504 -14.8286 H 1 RES   0.0000
2115 H -4.08214 11.6468 -13.2307 H 1 RES   0.0000
2116 H 14.256 -13.474 3.02513 H 1 RES   0.0000
2117 H 8.13259 -9.72839 -10.7609 H 1 RES   0.0000
2118 H 7.63394 -11.6412 1.50441 H 1 RES   0.0000
2119 H -0.736502 10.0062 12.3879 H 1 RES   0.0000
2120 H 5.76921 1.42937 -0.198555 H 1 RES   0.0000
2121 H -5.75323 -6.12739 6.97005 H 1 RES   0.0000
2122 H -2.59925 6.3741 -8.33547 H 1 RES   0.0000
2123 H 2.61046 -10.4276 -5.30694 H 1 RES   0.0000
2124 H -14.0098 -6.91062 -2.83733 H 1 RES   0.0000
2125 H 7.10034 13.3612 10.9108 H 1 RES   0.0000
2126 H -10.7465 -4.66556 -10.5299 H 1 RES   0.0000
2127 H 11.9654 12.5049 7.81252 H 1 RES   0.0000
2128 H -7.71892 -8.89979 4.84319 H 1 RES   0.0000
2129 H 2.69082 -7.81555 -8.97982 H 1 RES   0.0000
2130 H 5.71491 7.87468 -11.9294 H 1 RES   0.0000
2131 H 9.46221 -5.93708 -9.934 H 1 RES   0.0000
2132 H -5.61381 0.398392 -11.3555 H 1 RES   0.0000
2133 H 6.46245 -2.25662 -7.79732 H 1 RES   0.0000
2134 H 10.3194 -11.7215 -8.55872 H 1 RES   0.0000
2135 H -10.4623 -2.52282 -10.5784 H 1 RES   0.0000
2136 H -10.5036 8.90496 -6.9115 H 1 RES   0.0000
2137 H -10.3703 -14.43 -6.99786 H 1 RES   0.0000
2138 H -2.67842 2.65114 -0.476955 H 1 RES   0.0000
2139 H 2.47329 -9.42022 -5.04745 H 1 RES   0.0000
2140 H -2.42107 -10.0229 -10.6552 H 1 RES   0.0000
2141 H -9.96718 -4.16119 -8.53679 H 1 RES   0.0000
2142 H -8.79632 -1.11977 -10.8862 H 1 RES   0.0000
2143 H 5.7651 5.20153 0.876263 H 1 RES   0.0000
2144 H 4.64549 -7.15739 13.9201 H 1 RES   0.0000
2145 H 12.2713 6.42449 -3.47195 H 1 RES   0.0000
2146 H -8.28135 -9.41149 2.79455 H 1 RES   0.0000
2147 H -14.5186 -4.08604 -8.2531 H 1 RES   0.0000
2148 H 7.71479 -14.8302 -1.57937 H 1 RES   0.0000
2149 H 0.497987 7.11098 4.58335 H 1 RES   0.0000
2150 H 8.18537 -1.80203 0.987008 H 1 RES   0.0000
2151 H 8.29114 13.1083 -13.694 H 1 RES   0.0000
2152 H -10.1526 6.50142 4.98412 H 1 RES   0.0000
2153 H 3.51565 -11.3664 -0.991851 H 1 RES   0.0000
2154 H 4.68821 -0.660219 -0.164949 H 1 RES   0.0000
2155 H -11.9791 -11.5701 -9.76808 H 1 RES   0.0000
2156 H -1.88346 2.13664 -0.326219 H 1 RES   0.0000
2157 H -5.5494 12.809 1.38756 H 1 RES   0.0000
2158 H -6.87576 7.07424 14.0452 H 1 RES   0.0000
2159 H 5.66384 -4.90863 12.3559 H 1 RES   0.0000
2160 H -12.3443 -13.3154 11.1715 H 1 RES   0.0000
2161 H -5.12398 11.5409 -8.73054 H 1 RES   0.0000
2162 H -7.23737 -11.1607 5.33397 H 1 RES   0.0000
2163 H 0.824648 8.62615 -12.7397 H 1 RES   0.0000
2164 H -0.578425 -6.53701 2.59048 H 1 RES   0.0000
2165 H 9.81042 3.71378 -9.7203 H 1 RES   0.0000
2166 H 12.326 -12.3103 -12.6621 H 1 RES   0.0000
2167 H 9.63677 9.54172 -5.11551 H 1 RES   0.0000
2168 H -3.07675 -1.71914 1.80643 H 1 RES   0.0000
2169 H 8.82871 4.19347 10.9221 H 1 RES   0.0000
2170 H -5.69445 -12.3407 -11.694 H 1 RES   0.0000
2171 H 9.5372 14.5032 -6.15414 H 1 RES   0.0000
2172 H -12.4136 -4.94154 8.09984 H 1 RES   0.0000
2173 H -7.01508 -4.96861 13.2406 H 1 RES   0.0000
2174 H -13.5521 -5.25129 13.976 H 1 RES   0.0000
2175 H 13.6615 6.88659 -2.13974 H 1 RES   0.0000
2176 H -6.99161 9.91981 9.75994 H 1 RES   0.0000
2177 H -6.69485 -8.47394 12.1114 H 1 RES   0.0000
2178 H -2.30737 -6.89207 4.28522 H 1 RES   0.0000
2179 H 1.00707 6.47869 -12.3449 H 1 RES   0.0000
2180 H 1.43478 -9.09263 13.6345 H 1 RES   0.0000
2181 H 10.7927 12.9423 -9.68017 H 1 RES   0.0000
2182 H 0.545073 -13.3096 -5.14477 H 1 RES   0.0000
2183 H -0.895018 -3.91288 -11.2285 H 1 RES   0.0000
2184 H -11.3516 11.124 -0.517634 H 1 RES   0.0000
2185 H -8.18761 13.6761 -1.7003 H 1 RES   0.0000
2186 H 0.996652 -8.27399 3.1015 H 1 RES   0.0000
2187 H -9.61055 -12.6885 -14.1908 H 1 RES   0.0000
2188 H 12.7588 0.870122 4.17627 H 1 RES   0.0000
2189 H 3.25592 4.67385 9.19657 H 1 RES   0.0000
2190 H -5.23347 -11.2529 10.0323 H 1 RES   0.0000
2191 H 2.95945 12.3839 -6.26843 H 1 RES   0.0000
2192 H 9.30149 12.398 4.34483 H 1 RES   0.0000
2193 H 14.1069 -0.351594 -0.984492 H 1 RES   0.0000
2194 H -9.64548 -1.90088 -12.6924 H 1 RES   0.0000
2195 H 11.5227 1.50912 -5.42047 H 1 RES   0.0000
2196 H -1.05807 -7.82712 7.41351 H 1 RES   0.0000
2197 H 8.00311 -14.6463 -10.8478 H 1 RES   0.0000
2198 H -2.50073 0.83446 -4.99259 H 1 RES   0.0000
2199 H 5.53886 -8.67703 -2.73543 H 1 RES   0.0000
2200 H -8.34082 -13.0939 -1.90964 H 1 RES   0.0000
2201 H 0.895884 -4.18413 2.17714 H 1 RES   0.0000
2202 H -11.137 8.17095 12.5382 H 1 RES   0.0000
2203 H -13.532 10.4259 -14.2346 H 1 RES   0.0000
2204 H 3.34304 -6.32477 3.81588 H 1 RES   0.0000
2205 H -10.0361 -10.0745 -7.46196 H 1 RES   0.0000
2206 H -1.27814 -0.935176 -0.574349 H 1 RES   0.0000
2207 H 9.62584 -0.454144 -12.588 H 1 RES   0.0000
2208 H 9.24793 3.04848 -4.36834 H 1 RES   0.0000
2209 H -3.25618 -1.58053 5.82962 H 1 RES   0.0000
2210 H 13.4307 12.655 -13.5876 H 1 RES   0.0000
2211 H -2.06055 10.0724 5.2482 H 1 RES   0.0000
2212 H 5.5141 -7.27787 -11.1893 H 1 RES   0.0000
2213 H -9.54399 8.3743 13.4097 H 1 RES   0.0000
2214 H -8.28572 14.0727 -10.3445 H 1 RES   0.0000
2215 H 4.95213 11.3628 9.92468 H 1 RES   0.0000
2216 H 10.568 -4.81562 -13.8953 H 1 RES   0.0000
2217 H -8.94626 -13.1574 7.87347 H 1 RES   0.0000
2218 H -9.479 -7.00126 -8.22154 H 1 RES   0.0000
2219 H -1.69781 12.2404 8.16032 H 1 RES   0.0000
2220 H -6.12807 -13.861 -5.86587 H 1 RES   0.0000
2221 H 7.88041 -7.08832 -2.76758 H 1 RES   0.0000
2222 H 1.33139 -9.5404 6.51545 H 1 RES   0.0000
2223 H -5.62639 9.11498 7.8848 H 1 RES   0.0000
2224 H 3.18734 4.16639 -13.6256 H 1 RES   0.0000
2225 H -7.60083 -3.85971 -10.7464 H 1 RES   0.0000
2226 H -11.9893 12.6571 1.42868 H 1 RES   0.0000
2227 H 1.17786 -12.0567 6.54879 H 1 RES   0.0000
2228 H 14.1213 -14.1692 -6.35761 H 1 RES   0.0000
2229 H -2.0834 -5.26895 6.87887 H 1 RES   0.0000
2230 H 4.13003 5.03683 8.35738 H 1 RES   0.0000
2231 H -8.81674 -8.82374 9.50663 H 1 RES   0.0000
2232 H 14.555 9.76321 -1.96427 H 1 RES   0.0000
2233 H -1.45407 5.8759 -13.3385 H 1 RES   0.0000
2234 H -5.40295 13.2484 -9.46873 H 1 RES   0.0000
2235 H 7.94812 8.07113 -14.7541 H 1 RES   0.0000
2236 H -3.44942 -13.4261 -9.56306 H 1 RES   0.0000
2237 H 3.97323 -5.69822 -8.97989 H 1 RES   0.0000
2238 H -5.59676 2.691 -6.00268 H 1 RES   0.0000
2239 H -9.4708 7.02582 3.77563 H 1 RES   0.0000
2240 H -12.4574 13.2903 -5.28284 H 1 RES   0.0000
2241 H 7.57695 11.6816 6.97863 H 1 RES   0.0000
2242 H 13.1539 3.54622 14.4522 H 1 RES   0.0000
2243 H -3.33745 -9.04858 0.117851 H 1 RES   0.0000
2244 H 2.98821 -4.66695 10.1282 H 1 RES   0.0000
2245 H -9.52347 5.09711 10.0951 H 1 RES   0.0000
2246 H -6.43269 -14.6575 1.62121 H 1 RES   0.0000
2247 H 13.782 -3.44659 -3.13347 H 1 RES   0.0000
2248 H -10.5232 -6.37237 11.7022 H 1 RES   0.0000
2249 H -7.4039 4.49622 -2.03534 H 1 RES   0.0000
2250 H -11.8301 7.66121 -10.7374 H 1 RES   0.0000
2251 H 0.54054 -13.3717 14.6468 H 1 RES   0.0000
2252 H -2.66588 -13.0723 -6.94455 H 1 RES   0.0000
2253 H 4.70667 5.60371 -3.32902 H 1 RES   0.0000
2254 H 10.6993 7.4431 -2.41418 H 1 RES   0.0000
2255 H -4.50474 0.334149 -11.5003 H 1 RES   0.0000
2256 H -6.96753 -10.3738 -4.812 H 1 RES   0.0000
2257 H 7.80098 8.94243 11.5682 H 1 RES   0.0000
2258 H -6.89001 5.90904 1.58868 H 1 RES   0.0000
2259 H -6.39729 -2.40861 -5.32151 H 1 RES   0.0000
2260 H -6.24639 10.2956 6.75902 H 1 RES   0.0000
2261 H 3.68945 -4.37037 10.9733 H 1 RES   0.0000
2262 H -6.533 11.5672 -3.74673 H 1 RES   0.0000
2263 H -13.2848 5.34062 -2.4757 H 1 RES   0.0000
2264 H -3.91502 -1.40164 -7.33173 H 1 RES   0.0000
2265 H 14.6504 -1.21219 -7.55334 H 1 RES   0.0000
2266 H -0.814194 10.9948 9.2131 H 1 RES   0.0000
2267 H -12.1923 4.10442 -11.8145 H 1 RES   0.0000
2268 H 8.5295 -12.4673 11.9634 H 1 RES   0.0000
2269 H 14.0364 3.3607 2.18955 H 1 RES   0.0000
2270 H -13.3335 7.82053 -8.98683 H 1 RES   0.0000
2271 H -4.82612 0.339806 1.94415 H 1 RES   0.0000
2272 H 13.9308 6.03915 -5.44754 H 1 RES   0.0000
2273 H -0.501787 -14.4329 -4.1138 H 1 RES   0.0000
2274 H -2.80813 -2.39993 8.16844 H 1 RES   0.0000
2275 H -3.8055 -9.81779 -11.4244 H 1 RES   0.0000
2276 H 10.837 11.3302 -4.8548 H 1 RES   0.0000
2277 H 12.4875 2.70821 -8.2078 H 1 RES   0.0000
2278 H 10.7481 14.6818 1.50685 H 1 RES   0.0000
2279 H -14.0183 2.43344 -9.19234 H 1 RES   0.0000
2280 H -2.94097 -12.7688 -8.31425 H 1 RES   0.0000
2281 H -7.99469 3.30701 10.5312 H 1 RES   0.0000
2282 H 12.0605 6.2336 0.401227 H 1 RES   0.0000
2283 H -1.57204 -13.0996 -4.00386 H 1 RES   0.0000
2284 H 6.90078 -8.55764 3.84277 H 1 RES   0.0000
2285 H 11.1325 5.01761 13.1673 H 1 RES   0.0000
2286 H -6.77495 -12.4742 -4.24874 H 1 RES   0.0000
2287 H -0.70205 -10.2579 8.99783 H 1 RES   0.0000
2288 H 8.5075 4.37923 -12.3995 H 1 RES   0.0000
2289 H 3.45979 -5.66495 10.2726 H 1 RES   0.0000
2290 H 12.5296 13.3971 -0.873827 H 1 RES   0.0000
2291 H -2.04579 14.7758 -0.219832 H 1 RES   0.0000
2292 H -14.8402 -5.56696 8.28143 H 1 RES   0.0000
2293 H 10.9523 -9.7955 -3.97704 H 1 RES   0.0000
2294 H 5.72206 3.13366 -9.02588 H 1 RES   0.0000
2295 H 3.33395 7.25472 8.79078 H 1 RES   0.0000
2296 H -9.67629 -5.36439 9.73999 H 1 RES   0.0000
2297 H 9.91245 -7.15173 13.1515 H 1 RES   0.0000
2298 H -6.7871 13.018 -7.59426 H 1 RES   0.0000
2299 H -10.02 -14.6546 -3.39847 H 1 RES   0.0000
2300 H 8.94088 2.98679 -11.182 H 1 RES   0.0000
2301 H 3.88293 11.8687 -2.12462 H 1 RES   0.0000
2302 H 13.9112 6.74113 0.000184981 H 1 RES   0.0000
2303 H 2.01598 -1.2191 2.97112 H 1 RES   0.0000
2304 H -8.1311 -2.63377 2.94825 H 1 RES   0.0000
2305 H -4.08753 -9.96436 6.60146 H 1 RES   0.0000
2306 H -8.74094 -5.29629 3.39689 H 1 RES   0.0000
2307 H 9.00309 8.50485 8.96408 H 1 RES   0.0000
2308 H -11.6474 0.876992 -14.1794 H 1 RES   0.0000
2309 H -9.30801 -8.60271 -3.85068 H 1 RES   0.0000
2310 H 5.20445 13.0424 12.81 H 1 RES   0.0000
2311 H -1.95218 4.90694 5.82693 H 1 RES   0.0000
2312 H -10.6143 -14.6434 12.016 H 1 RES   0.0000
2313 H -6.2705 4.37616 -14.7316 H 1 RES   0.0000
2314 H 8.66274 -2.3998 -13.503 H 1 RES   0.0000
2315 H -3.72997 5.24939 2.68212 H 1 RES   0.0000
2316 H -9.34575 -2.86685 -1.77352 H 1 RES   0.0000
2317 H 6.97203 2.75923 -3.18613 H 1 RES   0.0000
2318 H 8.0545 7.98625 9.34441 H 1 RES   0.0000
2319 H -0.746896 -8.48565 -10.296 H 1 RES   0.0000
2320 H 9.57443 -1.32914 -10.1348 H 1 RES   0.0000
2321 H -6.17312 1.962 2.86987 H 1 RES   0.0000
2322 H -10.2173 8.68717 -2.16167 H 1 RES   0.0000
2323 H -12.244 -0.976296 -6.42899 H 1 RES   0.0000
2324 H -1.57775 -14.3864 -11.4842 H 1 RES   0.0000
2325 H -4.84638 11.8771 1.55662 H 1 RES   0.0000
2326 H 5.54128 2.78599 3.22387 H 1 RES   0.0000
2327 H 14.1983 11.8359 -14.5169 H 1 RES   0.0000
2328 H 10.7603 6.33569 -13.2689 H 1 RES   0.0000
2329 H -13.7687 -0.0223625 -1.68932 H 1 RES   0.0000
2330 H -0.440131 7.49048 2.14162 H 1 RES   0.0000
2331 H 5.41163 -9.82697 13.7313 H 1 RES   0.0000
2332 H 13.752 2.55779 12.7844 H 1 RES   0.0000
2333 H -11.4931 -10.6428 5.46983 H 1 RES   0.0000
2334 H -7.83448 -3.34896 -9.73153 H 1 RES   0.0000
2335 H -2.74137 -12.0559 6.50782 H 1 RES   0.0000
2336 H -3.13263 2.51234 -1.58229 H 1 RES   0.0000
2337 H 12.9576 -11.5306 3.37196 H 1 RES   0.0000
2338 H -6.95783 5.43798 -14.0103 H 1 RES   0.0000
2339 H 14.6105 8.98868 7.72594 H 1 RES   0.0000
2340 H -2.63786 -3.6896 12.477 H 1 RES   0.0000
2341 H 13.601 7.49 2.58765 H 1 RES   0.0000
2342 H 9.34803 10.0264 -0.705301 H 1 RES   0.0000
2343 H -6.55796 -5.02179 9.54471 H 1 RES   0.0000
2344 H 12.0527 13.0808 -10.9916 H 1 RES   0.0000
2345 H 8.16021 9.29708 7.35567 H 1 RES   0.0000
2346 H 0.0441641 5.17228 -14.7844 H 1 RES   0.0000
2347 H -4.96904 -12.4631 6.62936 H 1 RES   0.0000
2348 H 4.39338 0.503282 -3.28863 H 1 RES   0.0000
2349 H -8.37445 1.42317 -0.985463 H 1 RES   0.0000
2350 H 4.02397 -6.39297 -1.09137 H 1 RES   0.0000
2351 H 13.25 2.62325 -5.97605 H 1 RES   0.0000
2352 H -12.8995 -3.55884 -12.1989 H 1 RES   0.0000
2353 H -1.93816 -6.30467 -9.01682 H 1 RES   0.0000
2354 H 7.40293 12.5613 -7.69476 H 1 RES   0.0000
2355 H 10.9381 3.65753 -14.2828 H 1 RES   0.0000
2356 H 11.9973 9.28381 3.99479 H 1 RES   0.0000
2357 H -1.69212 6.7932 7.54838 H 1 RES   0.0000
2358 H 2.09865 10.3324 -11.0783 H 1 RES   0.0000
2359 H 11.1799 1.32151 -14.81 H 1 RES   0.0000
2360 H 12.9787 7.79922 -14.0534 H 1 RES   0.0000
2361 H -0.684581 11.9632 11.4579 H 1 RES   0.0000
2362 H -11.049 -6.63785 -5.39521 H 1 RES   0.0000
2363 H 13.285 2.86892 -2.44836 H 1 RES   0.0000
2364 H 4.15409 -5.27353 -4.95862 H 1 RES   0.0000
2365 H 4.25468 2.08572 -8.34434 H 1 RES   0.0000
2366 H 8.19949 11.9951 -1.63858 H 1 RES   0.0000
2367 H 13.0157 -8.8967 5.74686 H 1 RES   0.0000
2368 H -7.22374 -7.04995 -1.43124 H 1 RES   0.0000
2369 H 5.5895 -7.73404 -3.36417 H 1 RES   0.0000
2370 H 6.72675 -9.56701 -10.0943 H 1 RES   0.0000
2371 H 2.22104 -5.60466 10.4215 H 1 RES   0.0000
2372 H -1.44763 11.587 -6.65169 H 1 RES   0.0000
2373 H -10.2675 -6.89273 -10.4645 H 1 RES   0.0000
2374 H -10.8112 0.390873 -0.545209 H 1 RES   0.0000
2375 H -7.29965 13.7145 -13.9498 H 1 RES   0.0000
2376 H -0.88723 -2.1058 2.93972 H 1 RES   0.0000
2377 H -13.3945 3.8428 -10.7455 H 1 RES   0.0000
2378 H -11.8985 -7.79645 -9.14594 H 1 RES   0.0000
2379 H 13.4535 8.24031 -10.9109 H 1 RES   0.0000
2380 H -0.464625 12.8741 -11.648 H 1 RES   0.0000
2381 H 0.874413 10.8025 -8.03341 H 1 RES   0.0000
2382 H -7.9209 12.8907 -13.2201 H 1 RES   0.0000
2383 H 5.87954 -8.36624 -6.8292 H 1 RES   0.0000
2384 H -8.41609 -7.65406 3.81415 H 1 RES   0.0000
2385 H 11.9899 7.8084 -13.711 H 1 RES   0.0000
2386 H 5.98021 -3.49159 -14.1718 H 1 RES   0.0000
2387 H 0.53155 -8.60758 -6.10137 H 1 RES   0.0000
2388 H -4.93354 -5.27686 8.8139 H 1 RES   0.0000
2389 H 4.88128 -14.7637 13.7873 H 1 RES   0.0000
2390 H -2.96161 5.2175 -3.10579 H 1 RES   0.0000
2391 H -1.8636 -11.0267 12.5874 H 1 RES   0.0000
2392 H -9.51164 -3.67694 -6.99848 H 1 RES   0.0000
2393 H 13.5299 10.8071 -5.33482 H 1 RES   0.0000
2394 H -2.80249 -8.71106 11.919 H 1 RES   0.0000
2395 H 13.0465 14.3161 10.051 H 1 RES   0.0000
2396 H -2.24926 -5.23297 2.8892 H 1 RES   0.0000
2397 H 12.6442 11.4032 -2.38793 H 1 RES   0.0000
2398 H -8.50305 -8.55861 8.57593 H 1 RES   0.0000
2399 H 7.08618 13.6328 -12.7741 H 1 RES   0.0000
2400 H 7.37651 -14.5614 -3.29259 H 1 RES   0.0000
2401 H -8.19798 -5.26393 12.4014 H 1 RES   0.0000
2402 H 9.79971 -1.26258 -13.2823 H 1 RES   0.0000
2403 H -10.7024 10.4397 5.39633 H 1 RES   0.0000
2404 H 4.28805 6.03075 0.484303 H 1 RES   0.0000
2405 H 7.79392 -8.95746 -4.16391 H 1 RES   0.0000
2406 H 4.05325 6.87457 4.6749 H 1 RES   0.0000
2407 H -10.4437 -10.4163 10.7209 H 1 RES   0.0000
2408 H -5.34001 3.42703 -13.0597 H 1 RES   0.0000
2409 H -10.1473 9.75135 8.90545 H 1 RES   0.0000
2410 H -11.1622 8.74117 2.21933 H 1 RES   0.0000
2411 H -4.81279 -9.79911 -0.234403 H 1 RES   0.0000
2412 H 2.03624 9.26691 -12.0066 H 1 RES   0.0000
2413 H -7.04489 -13.8859 6.20085 H 1 RES   0.0000
2414 H 7.21982 -2.89388 -1.72422 H 1 RES   0.0000
2415 H -13.1804 -8.69453 -2.34991 H 1 RES   0.0000
2416 H 5.32456 14.174 4.03493 H 1 RES   0.0000
2417 H -4.8645 13.0228 0.617002 H 1 RES   0.0000
2418 H -12.5707 5.47694 -7.13282 H 1 RES   0.0000
2419 H -5.39631 6.89472 -14.5523 H 1 RES   0.0000
2420 H -7.49045 9.31984 1.09979 H 1 RES   0.0000
2421 H -4.75382 -11.4969 -11.1678 H 1 RES   0.0000
2422 H 0.382874 12.9038 -3.22396 H 1 RES   0.0000
2423 H 13.5042 8.66775 -0.549651 H 1 RES   0.0000
2424 H -2.62658 6.16362 -13.6819 H 1 RES   0.0000
2425 H -12.0853 -8.05353 -5.48858 H 1 RES   0.0000
2426 H -8.62684 -0.279122 -10.0081 H 1 RES   0.0000
2427 H -11.2199 12.2537 9.59738 H 1 RES   0.0000
2428 H 1.67577 -14.4501 1.47648 H 1 RES   0.0000
2429 H 5.54901 6.50106 0.826584 H 1 RES   0.0000
2430 H 13.3338 -1.19764 2.6515 H 1 RES   0.0000
2431 H -6.3884 -1.99924 -2.2155 H 1 RES   0.0000
2432 H -12.1946 -13.7597 12.2962 H 1 RES   0.0000
2433 H -10.8578 -7.8307 -3.4453 H 1 RES   0.0000
2434 H 4.18182 -12.7002 -8.10907 H 1 RES   0.0000
2435 H -11.0171 -10.3849 2.78738 H 1 RES   0.0000
2436 H -0.367374 -7.23597 -10.3077 H 1 RES   0.0000
2437 H 9.99787 5.6108 4.27317 H 1 RES   0.0000
2438 H 14.841 2.83569 13.3285 H 1 RES   0.0000
2439 H 4.73767 -0.40695 -7.60234 H 1 RES   0.0000
2440 H 10.0189 -13.7895 -8.5263 H 1 RES   0.0000
2441 H -11.8699 10.8516 1.18695 H 1 RES   0.0000
2442 H -14.2467 3.72946 -1.52144 H 1 RES   0.0000
2443 H 2.19537 -0.976574 5.15755 H 1 RES   0.0000
2444 H 6.16763 11.2138 -3.33667 H 1 RES   0.0000
2445 H 9.64843 6.86225 1.54971 H 1 RES   0.0000
2446 H -3.29921 8.14577 3.9727 H 1 RES   0.0000
2447 H 4.18583 -9.84877 -10.5565 H 1 RES   0.0000
2448 H 9.53829 14.2862 8.72918 H 1 RES   0.0000
2449 H -8.26975 0.130257 -12.9671 H 1 RES   0.0000
2450 H -0.967593 10.4875 -2.71897 H 1 RES   0.0000
2451 H 13.1748 -13.5123 -12.4915 H 1 RES   0.0000
2452 H -12.3941 -14.2476 -3.45006 H 1 RES   0.0000
2453 H 3.43028 -5.04618 14.5632 H 1 RES   0.0000
2454 H 8.44069 13.9509 5.62192 H 1 RES   0.0000
2455 H -2.4638 -13.9697 -14.5705 H 1 RES   0.0000
2456 H 4.51108 -14.6609 -2.45527 H 1 RES   0.0000
2457 H -11.8487 -4.80202 -1.28803 H 1 RES   0.0000
2458 H 12.8783 -13.7413 7.78962 H 1 RES   0.0000
2459 H 2.84317 14.6949 -12.7979 H 1 RES   0.0000
2460 H -10.5979 -12.9003 5.71236 H 1 RES   0.0000
2461 H 13.6828 -2.71438 5.04597 H 1 RES   0.0000
2462 H 4.34197 -5.0646 9.01168 H 1 RES   0.0000
2463 H -10.3496 -7.54316 -5.42481 H 1 RES   0.0000
2464 H 6.33387 4.00201 -10.4196 H 1 RES   0.0000
2465 H -6.92753 -1.45927 -6.24143 H 1 RES   0.0000
2466 H -5.83347 -5.43315 -13.9957 H 1 RES   0.0000
2467 H -12.6844 -11.6544 11.734 H 1 RES   0.0000
2468 H -2.45504 10.1505 -11.3355 H 1 RES   0.0000
2469 H 8.00795 12.7036 1.29686 H 1 RES   0.0000
2470 H -14.5727 -14.313 10.8611 H 1 RES   0.0000
2471 H -0.895101 11.8302 -2.25999 H 1 RES   0.0000
2472 H -2.2817 -9.20174 -4.75679 H 1 RES   0.0000
2473 H 4.56257 -7.02901 -13.2702 H 1 RES   0.0000
2474 H -4.82127 11.1995 0.638687 H 1 RES   0.0000
2475 H -0.236214 5.10776 1.1493 H 1 RES   0.0000
2476 H 1.92189 -13.6913 2.47476 H 1 RES   0.0000
2477 H -9.36716 5.72847 6.46932 H 1 RES   0.0000
2478 H 13.0536 -13.3357 2.96307 H 1 RES   0.0000
2479 H 9.12737 -10.118 -5.28795 H 1 RES   0.0000
2480 H 6.79017 -9.01504 -11.948 H 1 RES   0.0000
2481 H 7.57087 -8.13287 -1.94041 H 1 RES   0.0000
2482 H -2.47399 14.7298 -14.5088 H 1 RES   0.0000
2483 H -2.33113 -6.40042 5.21952 H 1 RES   0.0000
2484 H 13.3319 -6.21019 5.41014 H 1 RES   0.0000
2485 H 13.3543 6.97208 -10.4965 H 1 RES   0.0000
2486 H -11.0021 7.14665 -4.86672 H 1 RES   0.0000
2487 H 2.66897 -13.7273 -6.68545 H 1 RES   0.0000
2488 H -8.58084 11.2586 -4.5784 H 1 RES   0.0000
2489 H -6.87308 -9.12151 -4.71352 H 1 RES   0.0000
2490 H -14.826 8.99217 -8.93119 H 1 RES   0.0000
2491 H 2.11452 10.9751 -8.45425 H 1 RES   0.0000
2492 H 2.77231 -5.52826 7.16886 H 1 RES   0.0000
2493 H 4.00848 -13.8816 -6.99233 H 1 RES   0.0000
2494 H -9.8283 0.995806 -4.38443 H 1 RES   0.0000
2495 H -8.85084 -6.05538 -4.4562 H 1 RES   0.0000
2496 H 3.6969 -14.5693 10.9185 H 1 RES   0.0000
2497 H -14.0884 6.14558 6.01819 H 1 RES   0.0000
2498 H -7.90841 -14.6587 -2.75787 H 1 RES   0.0000
2499 H 4.24702 7.12844 -13.2102 H 1 RES   0.0000
2500 H -10.7664 6.50231 -5.72022 H 1 RES   0.0000
2501 H 12.5684 12.3832 3.56067 H 1 RES   0.0000
2502 H 14.3995 -6.48055 -3.61632 H 1 RES   0.0000
2503 H 4.87648 -0.0218982 2.49695 H 1 RES   0.0000
2504 H 3.97776 -6.72124 -3.23768 H 1 RES   0.0000
2505 H 9.42999 8.14339 2.33447 H 1 RES   0.0000
2506 H 14.3156 10.0541 -0.282086 H 1 RES   0.0000
2507 H -14.6658 -6.97966 12.5219 H 1 RES   0.0000
2508 H 13.0046 1.70894 8.63273 H 1 RES   0.0000
2509 H 12.1153 12.7932 9.1336 H 1 RES   0.0000
2510 H -6.684 -5.25334 11.9913 H 1 RES   0.0000
2511 H 7.78255 4.44496 -7.53386 H 1 RES   0.0000
2512 H -1.65964 12.2569 -12.2055 H 1 RES   0.0000
2513 H 0.355198 1.90525 -9.67567 H 1 RES   0.0000
2514 H -13.6523 6.2145 -8.74163 H 1 RES   0.0000
2515 H -8.63084 2.32276 3.19142 H 1 RES   0.0000
2516 H -1.5297 3.17197 -0.331161 H 1 RES   0.0000
2517 H -8.75467 2.16951 9.60084 H 1 RES   0.0000
2518 H 7.55218 -6.54056 2.44943 H 1 RES   0.0000
2519 H -4.91421 -3.83584 13.1301 H 1 RES   0.0000
2520 H -0.381212 7.76432 8.80388 H 1 RES   0.0000
2521 H -2.09954 -0.418848 -9.93454 H 1 RES   0.0000
2522 H -12.3109 -1.68499 -2.09057 H 1 RES   0.0000
2523 H 5.79576 13.3017 -3.67039 H 1 RES   0.0000
2524 H -3.69973 12.1836 -14.3069 H 1 RES   0.0000
2525 H -0.544927 6.95478 4.18684 H 1 RES   0.0000
2526 H 9.31361 10.3739 -12.3236 H 1 RES   0.0000
2527 H 4.28419 0.0405454 9.3213 H 1 RES   0.0000
2528 H -3.64239 6.38035 0.422781 H 1 RES   0.0000
2529 H -12.87 3.23653 9.26064 H 1 RES   0.0000
2530 H -1.66799 -11.3 -14.3695 H 1 RES   0.0000
2531 H 14.244 6.4029 2.64016 H 1 RES   0.0000
2532 H 4.5428 4.40697 5.21588 H 1 RES   0.0000
2533 H 0.436899 -2.01766 3.88162 H 1 RES   0.0000
2534 H 6.22373 -10.133 8.58561 H 1 RES   0.0000
2535 H -5.29584 -8.96925 -2.60081 H 1 RES   0.0000
2536 H 13.9553 6.03765 -0.673382 H 1 RES   0.0000
2537 H -2.51868 -5.48235 11.4048 H 1 RES   0.0000
2538 H -7.71888 -6.64185 4.45213 H 1 RES   0.0000
2539 H -14.3475 -6.61488 8.25198 H 1 RES   0.0000
2540 H 3.54398 5.71381 9.07143 H 1 RES   0.0000
2541 H 6.93692 -6.95699 12.6849 H 1 RES   0.0000
2542 H 0.0588022 5.02933 -8.25091 H 1 RES   0.0000
2543 H -4.59506 -2.0193 -12.6163 H 1 RES   0.0000
2544 H -7.40015 -4.8834 8.28512 H 1 RES   0.0000
2545 H -8.62418 9.22393 1.53018 H 1 RES   0.0000
2546 H 9.91929 -4.46977 -6.49247 H 1 RES   0.0000
2547 H -10.7415 -6.1529 5.01734 H 1 RES   0.0000
2548 H 5.67026 10.8193 13.3703 H 1 RES   0.0000
2549 H -0.864882 4.00311 -13.9136 H 1 RES   0.0000
2550 H 3.50541 -2.49991 -3.2323 H 1 RES   0.0000
2551 H -6.50067 8.67143 -3.56307 H 1 RES   0.0000
2552 H -2.54101 -0.471657 2.19842 H 1 RES   0.0000
2553 H 10.4391 -14.3432 -6.00509 H 1 RES   0.0000
2554 H -10.8266 -4.13981 14.7214 H 1 RES   0.0000
2555 H -4.66188 7.32407 1.85561 H 1 RES   0.0000
2556 H 5.2099 -13.1279 12.0977 H 1 RES   0.0000
2557 H -6.08345 2.14531 9.55189 H 1 RES   0.0000
2558 H 10.14 -6.05369 13.9612 H 1 RES   0.0000
2559 H 13.7852 -14.0858 11.2708 H 1 RES   0.0000
2560 H -7.92647 -4.57862 10.4386 H 1 RES   0.0000
2561 H -3.97583 0.479709 -1.61898 H 1 RES   0.0000
2562 H 3.68654 -14.7671 2.98054 H 1 RES   0.0000
2563 H -9.48517 -1.51759 9.30775 H 1 RES   0.0000
2564 H -10.4532 -13.5096 -7.71258 H 1 RES   0.0000
2565 H 12.7614 4.71689 14.1216 H 1 RES   0.0000
2566 H -14.4575 -6.06881 -14.6018 H 1 RES   0.0000
2567 H 14.7623 -12.9453 -7.59403 H 1 RES   0.0000
2568 H -2.76199 -9.08458 -2.35586 H 1 RES   0.0000
2569 H 14.3828 6.51013 -4.39655 H 1 RES   0.0000
2570 H 13.5355 6.84544 -8.33206 H 1 RES   0.0000
2571 H 9.55438 -4.27266 -8.22752 H 1 RES   0.0000
2572 H -7.77581 -2.69795 -10.5292 H 1 RES   0.0000
2573 H -2.42486 1.2992 -13.7845 H 1 RES   0.0000
2574 H -9.44705 1.78278 -1.25495 H 1 RES   0.0000
2575 H 6.67458 -9.9883 -11.1125 H 1 RES   0.0000
2576 H 1.5676 8.81753 -2.51587 H 1 RES   0.0000
2577 H -0.925936 1.68675 -0.96986 H 1 RES   0.0000
2578 H 4.81255 8.81398 -12.871 H 1 RES   0.0000
2579 H 10.4162 -10.9965 -0.319812 H 1 RES   0.0000
2580 H -4.19934 -12.2493 14.725 H 1 RES   0.0000
2581 H 3.15727 -8.05195 11.4685 H 1 RES   0.0000
2582 H -8.43865 1.27268 5.17984 H 1 RES   0.0000
2583 H -7.95033 -7.76975 11.6005 H 1 RES   0.0000
2584 H 10.6866 4.50456 4.43278 H 1 RES   0.0000
2585 H -1.13918 -8.88769 -8.87187 H 1 RES   0.0000
2586 H -7.34341 -1.63633 10.3265 H 1 RES   0.0000
2587 H -5.51588 3.66052 -10.8896 H 1 RES   0.0000
2588 H -12.1618 11.918 3.91533 H 1 RES   0.0000
2589 H -5.13309 1.5852 9.67569 H 1 RES   0.0000
2590 H 0.238385 2.87592 6.13093 H 1 RES   0.0000
2591 H -14.6326 -0.148939 11.139 H 1 RES   0.0000
2592 H 14.5989 -10.2303 -10.5586 H 1 RES   0.0000
2593 H -9.17715 7.65325 -10.2733 H 1 RES   0.0000
2594 H 2.99736 -8.30907 -11.47 H 1 RES   0.0000
2595 H -5.92556 2.89263 5.28223 H 1 RES   0.0000
2596 H -5.52503 -4.21826 11.3123 H 1 RES   0.0000
2597 H -4.50829 -7.33663 11.6399 H 1 RES   0.0000
2598 H 8.92108 -13.2843 8.33585 H 1 RES   0.0000
2599 H -11.7367 8.76009 -1.11313 H 1 RES   0.0000
2600 H 14.2327 2.76995 -12.2861 H 1 RES   0.0000
2601 H 14.0506 10.0867 4.80256 H 1 RES   0.0000
2602 H 3.57722 1.22846 11.2554 H 1 RES   0.0000
2603 H 9.61712 -10.2326 -6.61586 H 1 RES   0.0000
2604 H -9.18048 12.6908 13.0296 H 1 RES   0.0000
2605 H -2.17047 9.32642 13.4211 H 1 RES   0.0000
2606 H 12.1884 -9.30926 -8.60004 H 1 RES   0.0000
2607 H 0.368934 11.34 2.87982 H 1 RES   0.0000
2608 H -4.93827 -9.27996 -4.52351 H 1 RES   0.0000
2609 H 10.8681 -14.5653 -12.2436 H 1 RES   0.0000
2610 H 8.41355 -14.5606 8.65514 H 1 RES   0.0000
2611 H 10.9952 3.52334 -7.67133 H 1 RES   0.0000
2612 H 0.866725 11.2533 -13.3501 H 1 RES   0.0000
2613 H -14.1626 -4.04902 -14.3521 H 1 RES   0.0000
2614 H -12.8019 -12.0615 0.63084 H 1 RES   0.0000
2615 H 4.74111 8.74122 -10.066 H 1 RES   0.0000
2616 H 10.7173 9.89525 10.0758 H 1 RES   0.0000
2617 H -14.48 -9.47089 9.14694 H 1 RES   0.0000
2618 H 9.80838 0.0875131 11.1149 H 1 RES   0.0000
2619 H 8.89747 7.412 3.83352 H 1 RES   0.0000
2620 H -0.334426 -7.2158 14.7252 H 1 RES   0.0000
2621 H 4.40561 -6.81689 1.2628 H 1 RES   0.0000
2622 H -4.05242 9.04649 -2.90637 H 1 RES   0.0000
2623 H -6.1341 -13.9306 -2.30352 H 1 RES   0.0000
2624 H -12.8101 5.56302 3.92856 H 1 RES   0.0000
2625 H 3.2156 10.7179 7.20543 H 1 RES   0.0000
2626 H 5.12225 13.5106 -0.0570676 H 1 RES   0.0000
2627 H -2.58285 -8.41843 9.18431 H 1 RES   0.0000
2628 H -2.90648 -0.663834 1.26132 H 1 RES   0.0000
2629 H -14.0843 13.7387 -14.2038 H 1 RES   0.0000
2630 H -5.62414 0.25705 0.9048 H 1 RES   0.0000
2631 H -2.24435 -1.08197 -2.28728 H 1 RES   0.0000
2632 H -1.07058 -1.13062 -1.56014 H 1 RES   0.0000
2633 H 12.6709 -2.65368 -2.79015 H 1 RES   0.0000
2634 H -13.3142 -8.66454 -8.35727 H 1 RES   0.0000
2635 H -2.14768 -7.45371 -3.38 H 1 RES   0.0000
2636 H 4.27926 -10.3536 -3.93515 H 1 RES   0.0000
2637 H -2.5711 -13.4702 -5.53363 H 1 RES   0.0000
2638 H 9.15428 -9.46134 12.8686 H 1 RES   0.0000
2639 H -9.75849 -7.29101 14.2822 H 1 RES   0.0000
2640 H 3.14015 7.07746 -3.37 H 1 RES   0.0000
2641 H 4.45933 7.19101 12.6876 H 1 RES   0.0000
2642 H -8.73102 5.8638 2.78186 H 1 RES   0.0000
2643 H -8.46112 11.5641 -8.43652 H 1 RES   0.0000
2644 H 1.57433 5.02683 6.2689 H 1 RES   0.0000
2645 H 12.5893 5.01756 2.78694 H 1 RES   0.0000
2646 H -4.43534 -8.35627 -6.37417 H 1 RES   0.0000
2647 H 3.49374 2.75786 -14.4985 H 1 RES   0.0000
2648 H 0.812397 9.16551 -7.7806 H 1 RES   0.0000
2649 H -7.12555 -9.41852 13.0358 H 1 RES   0.0000
2650 H -12.6928 3.66288 4.6996 H 1 RES   0.0000
2651 H -1.35191 6.31747 -7.96746 H 1 RES   0.0000
2652 H 12.5928 -14.7237 -8.40635 H 1 RES   0.0000
2653 H -8.53911 12.0429 -5.86522 H 1 RES   0.0000
2654 H -11.1934 14.66 -1.30542 H 1 RES   0.0000
2655 H -9.20106 7.89381 12.429 H 1 RES   0.0000
2656 H -3.78246 1.61972 2.32306 H 1 RES   0.0000
2657 H 14.5691 -9.89138 -8.24722 H 1 RES   0.0000
2658 H 4.50942 10.5709 14.745 H 1 RES   0.0000
2659 H -11.8723 -10.8818 13.4296 H 1 RES   0.0000
2660 H -10.6545 13.3852 4.55029 H 1 RES   0.0000
2661 H -5.59123 -7.00579 11.6326 H 1 RES   0.0000
2662 H -11.8117 0.786186 -12.1619 H 1 RES   0.0000
2663 H -10.7193 12.6471 -2.90319 H 1 RES   0.0000
2664 H -5.20436 -1.11395 -8.65559 H 1 RES   0.0000
2665 H 4.15824 -7.36694 11.6511 H 1 RES   0.0000
2666 H -9.7219 8.47424 -6.2523 H 1 RES   0.0000
2667 H 4.94195 -1.70484 -2.03944 H 1 RES   0.0000
2668 H -10.0161 3.9948 12.9803 H 1 RES   0.0000
2669 H 10.6124 1.86323 -5.83575 H 1 RES   0.0000
2670 H -10.371 13.3654 5.50467 H 1 RES   0.0000
2671 H -8.63698 7.27753 -8.01955 H 1 RES   0.0000
2672 H -8.02417 11.0486 13.6869 H 1 RES   0.0000
2673 H 6.25798 12.0729 -0.624863 H 1 RES   0.0000
2674 H -10.5205 2.28592 11.7634 H 1 RES   0.0000
2675 H -12.7789 0.747009 -11.1942 H 1 RES   0.0000
2676 H 13.1951 13.7749 14.0583 H 1 RES   0.0000
2677 H 4.83051 8.46693 -2.703 H 1 RES   0.0000
2678 H 1.03271 11.4421 1.82432 H 1 RES   0.0000
2679 H -0.41862 10.5485 0.372792 H 1 RES   0.0000
2680 H 1.16122 -12.472 -11.9456 H 1 RES   0.0000
2681 H -1.28213 0.104046 -2.23871 H 1 RES   0.0000
2682 H 13.9118 6.38361 -14.5405 H 1 RES   0.0000
2683 H -1.75706 -4.03142 0.948135 H 1 RES   0.0000
2684 H -9.53371 3.64079 4.66301 H 1 RES   0.0000
2685 H 0.354737 2.92047 -8.14997 H 1 RES   0.0000
2686 H 12.2216 5.66214 -13.5212 H 1 RES   0.0000
2687 H 5.42803 -9.11771 -7.40396 H 1 RES   0.0000
2688 H -1.29499 -7.29744 -6.49626 H 1 RES   0.0000
2689 H 13.8476 1.96805 3.00894 H 1 RES   0.0000
2690 H 4.58904 7.06849 -14.4324 H 1 RES   0.0000
2691 H -4.02619 12.942 12.2898 H 1 RES   0.0000
2692 H 8.83373 -8.77211 10.5579 H 1 RES   0.0000
2693 H 12.2318 5.02779 5.6451 H 1 RES   0.0000
2694 H 11.0555 2.32856 -0.0419134 H 1 RES   0.0000
2695 H -11.7018 -14.5508 6.80547 H 1 RES   0.0000
2696 H -10.7145 3.88959 6.47338 H 1 RES   0.0000
2697 H 2.29692 1.85012 -6.09067 H 1 RES   0.0000
2698 H 11.5013 0.673545 -13.4044 H 1 RES   0.0000
2699 H 1.95202 -13.9333 -8.80929 H 1 RES   0.0000
2700 H 13.2405 0.817891 1.09957 H 1 RES   0.0000
2701 H 4.91888 -5.10565 -12.6945 H 1 RES   0.0000
2702 H -9.21399 13.7885 -7.50404 H 1 RES   0.0000
2703 H 11.6074 -4.25953 -10.4649 H 1 RES   0.0000
2704 H 7.92531 -5.89277 8.42366 H 1 RES   0.0000
2705 H 2.98267 3.86684 -12.6174 H 1 RES   0.0000
2706 H 13.1201 -10.1732 11.9324 H 1 RES   0.0000
2707 H -3.11995 10.6981 -2.60443 H 1 RES   0.0000
2708 H 11.7782 6.10651 10.6523 H 1 RES   0.0000
2709 H 4.12674 12.8241 -1.66392 H 1 RES   0.0000
2710 H 9.13448 -3.26577 -4.80513 H 1 RES   0.0000
2711 H 8.83714 8.53848 3.29527 H 1 RES   0.0000
2712 H 3.594 7.87189 13.1641 H 1 RES   0.0000
2713 H 7.38194 -12.9355 -11.556 H 1 RES   0.0000
2714 H 11.9624 -3.50876 -0.99144 H 1 RES   0.0000
2715 H 9.41856 10.8515 -9.26844 H 1 RES   0.0000
2716 H -2.90561 3.67027 1.93221 H 1 RES   0.0000
2717 H 5.82665 5.15954 -9.77087 H 1 RES   0.0000
2718 H 9.41038 -2.95547 5.85377 H 1 RES   0.0000
2719 H 12.8531 10.0565 -4.82239 H 1 RES   0.0000
2720 H 2.30078 3.81102 5.71784 H 1 RES   0.0000
2721 H -7.24633 -12.5241 -2.28967 H 1 RES   0.0000
2722 H 8.57905 11.2526 -2.94421 H 1 RES   0.0000
2723 H -13.3954 -0.219094 14.311 H 1 RES   0.0000
2724 H -9.70603 -13.6543 -3.47451 H 1 RES   0.0000
2725 H 13.9038 8.87502 9.83048 H 1 RES   0.0000
2726 H 1.12218 11.0758 -5.45378 H 1 RES   0.0000
2727 H 9.20945 -6.18781 -13.7379 H 1 RES   0.0000
2728 H 11.2362 -8.69264 -1.04099 H 1 RES   0.0000
2729 H -10.5005 -5.19902 -9.47021 H 1 RES   0.0000
2730 H -4.36134 -7.87376 -4.70182 H 1 RES   0.0000
2731 H -6.5192 5.02299 12.3045 H 1 RES   0.0000
2732 H 9.85273 -4.30079 -5.41234 H 1 RES   0.0000
2733 H -3.21377 -14.3378 -13.7918 H 1 RES   0.0000
2734 H 3.32729 10.717 -14.7066 H 1 RES   0.0000
2735 H -3.16423 -13.695 10.7743 H 1 RES   0.0000
2736 H 4.27704 -6.12125 11.3088 H 1 RES   0.0000
2737 H -6.70641 11.8343 -14.0769 H 1 RES   0.0000
2738 H 13.5419 14.5434 3.03933 H 1 RES   0.0000
2739 H -11.7819 -2.14055 -11.5561 H 1 RES   0.0000
2740 H -9.00345 -14.6169 13.7235 H 1 RES   0.0000
2741 H -5.44775 -5.46154 -4.52244 H 1 RES   0.0000
2742 H 9.69744 -3.48219 1.07579 H 1 RES   0.0000
2743 H -5.36766 -8.06608 1.59033 H 1 RES   0.0000
2744 H 3.11755 -7.48673 7.97291 H 1 RES   0.0000
2745 H -13.2779 -6.04957 8.96985 H 1 RES   0.0000
2746 H -8.90131 10.7765 -8.87157 H 1 RES   0.0000
2747 H 1.68157 -11.8052 -9.92703 H 1 RES   0.0000
2748 H 8.55243 4.39853 -13.5421 H 1 RES   0.0000
2749 H 5.67502 8.69436 -13.4892 H 1 RES   0.0000
2750 H 12.0579 9.50773 -0.11427 H 1 RES   0.0000
2751 H -3.91582 5.34194 8.69532 H 1 RES   0.0000
2752 H 3.65105 14.6645 -13.5116 H 1 RES   0.0000
2753 H -4.12469 -5.72181 -4.07046 H 1 RES   0.0000
2754 H -7.29334 0.0180791 4.58417 H 1 RES   0.0000
2755 H -2.17522 -0.813016 -1.05078 H 1 RES   0.0000
2756 H -3.6043 5.29218 -10.0459 H 1 RES   0.0000
2757 H -8.50198 0.179587 4.45449 H 1 RES   0.0000
2758 H 1.25575 -5.75932 -7.50765 H 1 RES   0.0000
2759 H -8.89006 -11.0078 11.136 H 1 RES   0.0000
2760 H -14.612 3.53933 -2.66051 H 1 RES   0.0000
2761 H -0.121124 3.67607 12.8472 H 1 RES   0.0000
2762 H 3.08002 9.57433 4.66583 H 1 RES   0.0000
2763 H -9.75888 6.28865 1.77668 H 1 RES   0.0000
2764 H 8.32137 3.37868 -13.3761 H 1 RES   0.0000
2765 H -7.63751 2.54494 13.0016 H 1 RES   0.0000
2766 H 7.33855 -4.11859 -13.3231 H 1 RES   0.0000
2767 H -12.4192 12.053 -4.53878 H 1 RES   0.0000
2768 H -10.1146 11.5449 2.75982 H 1 RES   0.0000
2769 H 10.8913 -12.6416 1.75907 H 1 RES   0.0000
2770 H 6.18508 6.32998 -10.18 H 1 RES   0.0000
2771 H 6.01789 -0.98525 7.18473 H 1 RES   0.0000
2772 H 10.3848 12.4278 -2.0412 H 1 RES   0.0000
2773 H 12.8239 3.36864 -10.436 H 1 RES   0.0000
2774 H 12.3098 14.5551 13.3238 H 1 RES   0.0000
2775 H -0.351195 13.6349 -7.04543 H 1 RES   0.0000
2776 H 4.37482 14.2515 11.6406 H 1 RES   0.0000
2777 H -3.0331 12.8046 14.712 H 1 RES   0.0000
2778 H -1.78581 -12.0791 -2.84767 H 1 RES   0.0000
2779 H 0.734207 -3.82646 -7.09882 H 1 RES   0.0000
2780 H -4.30535 -2.86376 -2.42433 H 1 RES   0.0000
2781 H 0.959417 12.9583 5.13391 H 1 RES   0.0000
2782 H -9.26106 -6.45563 -10.4416 H 1 RES   0.0000
2783 H -4.14513 6.91087 -10.5073 H 1 RES   0.0000
2784 H 12.7665 13.1883 2.11436 H 1 RES   0.0000
2785 H 5.32533 13.1528 5.29192 H 1 RES   0.0000
2786 H -7.54214 4.22579 10.0805 H 1 RES   0.0000
2787 H 8.4775 -14.3389 3.96634 H 1 RES   0.0000
2788 H -4.03507 -11.5976 -3.08672 H 1 RES   0.0000
2789 H 0.429951 1.37521 -3.989 H 1 RES   0.0000
2790 H -8.22266 5.61656 12.257 H 1 RES   0.0000
2791 H -7.67479 6.17435 -0.341587 H 1 RES   0.0000
2792 H 12.1008 12.9273 -12.3862 H 1 RES   0.0000
2793 H -6.16677 -14.7304 14.5215 H 1 RES   0.0000
2794 H -4.9859 13.9775 4.98692 H 1 RES   0.0000
2795 H 6.5959 -5.08193 6.82479 H 1 RES   0.0000
2796 H 9.0184 0.196883 -0.134611 H 1 RES   0.0000
2797 H -11.8055 9.38653 -2.12738 H 1 RES   0.0000
2798 H -4.30313 -2.71648 0.36538 H 1 RES   0.0000
2799 H -9.04299 -8.45171 -11.3617 H 1 RES   0.0000
2800 H 5.8233 0.164028 8.81805 H 1 RES   0.0000
2801 H 5.16532 3.35859 13.2027 H 1 RES   0.0000
2802 H 2.35481 14.6122 14.6499 H 1 RES   0.0000
2803 H 13.2191 3.37021 -3.30536 H 1 RES   0.0000
2804 H -2.94997 4.76098 -13.6464 H 1 RES   0.0000
2805 H -12.6946 3.14365 0.742655 H 1 RES   0.0000
2806 H 12.4241 -12.3693 -10.9042 H 1 RES   0.0000
2807 H -6.43101 9.62199 12.1245 H 1 RES   0.0000
2808 H 4.36149 14.829 -0.670537 H 1 RES   0.0000
2809 H 8.42097 8.02435 -8.48696 H 1 RES   0.0000
2810 H -5.94455 1.02572 8.65317 H 1 RES   0.0000
2811 H 13.4486 -5.33193 10.21 H 1 RES   0.0000
2812 H -1.52115 11.3497 11.0354 H 1 RES   0.0000
2813 H 6.79028 -14.1418 6.93541 H 1 RES   0.0000
2814 H -8.27179 -7.66437 7.87506 H 1 RES   0.0000
2815 H 1.24292 -3.70498 -13.4123 H 1 RES   0.0000
2816 H 4.72994 -3.8999 -11.2101 H 1 RES   0.0000
2817 H 11.496 -2.59337 -11.026 H 1 RES   0.0000
2818 H -14.3668 -3.1488 6.74787 H 1 RES   0.0000
2819 H -4.85402 -11.5113 4.72492 H 1 RES   0.0000
2820 H -12.3878 14.5001 6.0722 H 1 RES   0.0000
2821 H 11.0749 10.6238 1.74329 H 1 RES   0.0000
2822 H 13.8877 6.06265 -12.4506 H 1 RES   0.0000
2823 H -3.60272 -0.397655 0.580252 H 1 RES   0.0000
2824 H -8.4387 -9.06507 -5.33935 H 1 RES   0.0000
2825 H -4.59721 -6.51132 5.65892 H 1 RES   0.0000
2826 H 1.55854 -4.2237 5.95557 H 1 RES   0.0000
2827 H 7.78452 1.29357 -14.0492 H 1 RES   0.0000
2828 H 12.2695 10.2336 6.3713 H 1 RES   0.0000
2829 H -9.56339 8.38126 -12.8875 H 1 RES   0.0000
2830 H -14.2881 -4.81918 -10.047 H 1 RES   0.0000
2831 H -5.51853 13.2679 2.80772 H 1 RES   0.0000
2832 H 5.26778 1.84771 -10.3012 H 1 RES   0.0000
2833 H 5.61866 2.16808 -1.1564 H 1 RES   0.0000
2834 H -5.88668 1.27184 1.63859 H 1 RES   0.0000
2835 H 9.26088 12.2631 -2.67078 H 1 RES   0.0000
2836 H -1.41772 4.57228 -9.15322 H 1 RES   0.0000
2837 H 5.22096 0.836103 12.3869 H 1 RES   0.0000
2838 H -10.2053 5.66533 2.77118 H 1 RES   0.0000
2839 H 7.22687 -1.36398 8.74892 H 1 RES   0.0000
2840 H -6.96501 -4.12312 -7.67349 H 1 RES   0.0000
2841 H -13.4951 14.3719 -1.96582 H 1 RES   0.0000
2842 H 8.41831 11.7357 -9.25935 H 1 RES   0.0000
2843 H -7.63603 1.03788 4.56056 H 1 RES   0.0000
2844 H -3.99166 -6.49295 11.0664 H 1 RES   0.0000
2845 H 2.91349 -9.36217 7.32553 H 1 RES   0.0000
2846 H 2.08747 -12.1676 10.7338 H 1 RES   0.0000
2847 H 9.45058 -7.34829 -7.20847 H 1 RES   0.0000
2848 H -1.9337 -12.6169 1.67484 H 1 RES   0.0000
2849 H -8.63372 10.5493 2.68506 H 1 RES   0.0000
2850 H -1.60164 -0.0465321 -9.09211 H 1 RES   0.0000
2851 H 1.24145 -9.15529 -10.8582 H 1 RES   0.0000
2852 H -7.78901 11.8103 -5.10762 H 1 RES   0.0000
2853 H -2.05655 -3.09 -12.9671 H 1 RES   0.0000
2854 H 6.24207 -8.28308 10.7772 H 1 RES   0.0000
2855 H -0.982644 -11.0497 -13.4952 H 1 RES   0.0000
2856 H 4.04526 11.5271 -4.06395 H 1 RES   0.0000
2857 H -11.6998 -0.225427 6.87411 H 1 RES   0.0000
2858 H -1.0593 -14.1818 5.04089 H 1 RES   0.0000
2859 H -4.98168 10.8153 -11.8145 H 1 RES   0.0000
2860 H 14.3284 5.7712 13.437 H 1 RES   0.0000
2861 H -14.6468 -2.0863 9.53693 H 1 RES   0.0000
2862 H 3.98474 14.1015 -1.50005 H 1 RES   0.0000
2863 H -5.39433 -13.0503 -4.50627 H 1 RES   0.0000
2864 H -7.49791 13.2209 12.2307 H 1 RES   0.0000
2865 H 0.431502 7.63989 9.77835 H 1 RES   0.0000
2866 H 0.0350559 -13.4956 9.78072 H 1 RES   0.0000
2867 H 7.3209 -0.729976 4.09409 H 1 RES   0.0000
2868 H 11.4613 -14.5648 -11.4339 H 1 RES   0.0000
2869 H 1.732 -5.75253 14.6275 H 1 RES   0.0000
2870 H -8.96917 5.43019 0.292591 H 1 RES   0.0000
2871 H -14.6692 2.9442 -3.80291 H 1 RES   0.0000
2872 H 2.09881 3.21691 14.4473 H 1 RES   0.0000
2873 H -1.21942 14.1179 8.85945 H 1 RES   0.0000
2874 H -2.56678 -11.6313 9.31557 H 1 RES   0.0000
2875 H 2.15642 -9.85414 9.40648 H 1 RES   0.0000
2876 H 9.31658 -4.56371 11.7244 H 1 RES   0.0000
2877 H -1.53311 -3.08119 4.81242 H 1 RES   0.0000
2878 H -5.3407 -2.27453 0.130261 H 1 RES   0.0000
2879 H -13.2832 -5.55074 -2.47347 H 1 RES   0.0000
2880 H -13.4784 -7.67932 0.195856 H 1 RES   0.0000
2881 H 3.36704 2.43061 8.97834 H 1 RES   0.0000
2882 H -10.1717 14.3747 4.67034 H 1 RES   0.0000
2883 H -12.6393 8.42284 -13.6906 H 1 RES   0.0000
2884 H -2.36368 6.04231 14.3704 H 1 RES   0.0000
2885 H 5.19299 14.4231 12.56 H 1 RES   0.0000
2886 H 5.80886 -10.6711 -2.22664 H 1 RES   0.0000
2887 H 3.23338 -5.36269 -3.02862 H 1 RES   0.0000
2888 H 12.7099 8.80501 -5.18914 H 1 RES   0.0000
2889 H 10.2203 -7.41436 -3.95951 H 1 RES   0.0000
2890 H -7.56565 -2.87204 -13.7598 H 1 RES   0.0000
2891 H 6.79122 2.93719 9.42456 H 1 RES   0.0000
2892 H -7.91667 3.39591 -3.426 H 1 RES   0.0000
2893 H 5.83283 -1.65604 0.186916 H 1 RES   0.0000
2894 H 0.887194 -7.19335 -2.28501 H 1 RES   0.0000
2895 H -8.63832 -5.28782 5.5906 H 1 RES   0.0000
2896 H -11.1628 -9.00601 10.9692 H 1 RES   0.0000
2897 H 14.7498 5.37422 1.05143 H 1 RES   0.0000
2898 H 11.2988 -11.675 -8.55791 H 1 RES   0.0000
2899 H -8.33103 10.8149 7.31233 H 1 RES   0.0000
2900 H 4.69137 11.6565 -11.361 H 1 RES   0.0000
2901 H -7.80107 -0.0956624 -3.45594 H 1 RES   0.0000
2902 H 7.79087 -6.4261 0.264088 H 1 RES   0.0000
2903 H 10.7823 -13.4785 -9.50262 H 1 RES   0.0000
2904 H -7.12767 -12.1341 4.64565 H 1 RES   0.0000
2905 H 3.33657 -5.04228 0.920739 H 1 RES   0.0000
2906 H 5.81716 2.71629 -0.236868 H 1 RES   0.0000
2907 H 10.2638 -5.6172 -10.5452 H 1 RES   0.0000
2908 H 9.68246 -5.24314 -4.29371 H 1 RES   0.0000
2909 H -8.02952 -7.99754 -0.679908 H 1 RES   0.0000
2910 H 2.27132 14.5637 11.8804 H 1 RES   0.0000
2911 H -12.0299 2.74842 14.0704 H 1 RES   0.0000
2912 H 9.27191 7.574 12.2146 H 1 RES   0.0000
2913 H 3.94347 12.9717 3.0781 H 1 RES   0.0000
2914 H -12.6576 6.72945 -2.71144 H 1 RES   0.0000
2915 H -4.2071 7.11326 2.81671 H 1 RES   0.0000
2916 H 6.49976 11.7469 6.86971 H 1 RES   0.0000
2917 H -1.17917 -11.2471 1.02613 H 1 RES   0.0000
2918 H -10.1712 14.0095 -1.19592 H 1 RES   0.0000
2919 H -12.0078 -4.80213 -2.38356 H 1 RES   0.0000
2920 H 3.26842 7.80715 1.34239 H 1 RES   0.0000
2921 H -1.52663 -0.0150938 -1.14054 H 1 RES   0.0000
2922 H -6.08131 7.07543 -7.13364 H 1 RES   0.0000
2923 H 13.6348 -13.6051 -1.07124 H 1 RES   0.0000
2924 H 4.2599 12.3511 12.9425 H 1 RES   0.0000
2925 H -9.35417 11.3087 -12.0525 H 1 RES   0.0000
2926 H 7.15497 -4.0191 -3.19751 H 1 RES   0.0000
2927 H 12.4899 -2.08119 -5.13177 H 1 RES   0.0000
2928 H -8.30966 -11.9449 10.9563 H 1 RES   0.0000
2929 H 13.1418 4.90083 -2.22163 H 1 RES   0.0000
2930 H 0.919499 -0.559308 -4.68243 H 1 RES   0.0000
2931 H -6.46712 2.39845 -11.4034 H 1 RES   0.0000
2932 H 6.5768 6.77846 10.482 H 1 RES   0.0000
2933 H 8.92856 -3.36661 -14.1719 H 1 RES   0.0000
2934 H 4.60428 -5.7389 2.22822 H 1 RES   0.0000
2935 H 12.8558 8.60102 -1.62302 H 1 RES   0.0000
2936 H 4.01617 -2.15442 3.15496 H 1 RES   0.0000
2937 H -12.2487 -8.1329 -0.0581336 H 1 RES   0.0000
2938 H -1.57008 -6.71062 -9.85818 H 1 RES   0.0000
2939 H -6.24605 -11.0851 -4.941 H 1 RES   0.0000
2940 H -4.29978 2.94257 -6.11396 H 1 RES   0.0000
2941 H -5.62591 9.02514 4.76121 H 1 RES   0.0000
2942 H 11.2192 10.002 3.70066 H 1 RES   0.0000
2943 H -10.34 -4.86942 -0.504981 H 1 RES   0.0000
2944 H 4.34562 13.693 -3.09961 H 1 RES   0.0000
2945 H 12.8032 -13.2609 -1.51326 H 1 RES   0.0000
2946 H -6.60308 -11.418 12.3089 H 1 RES   0.0000
2947 H 2.73651 10.4676 10.755 H 1 RES   0.0000
2948 H -5.15125 1.34697 -0.307487 H 1 RES   0.0000
2949 H 7.95266 10.9775 -8.19251 H 1 RES   0.0000
2950 H -7.22703 -6.37666 -9.00959 H 1 RES   0.0000
2951 H -14.5974 -7.80097 -11.8283 H 1 RES   0.0000
2952 H -8.25555 -4.45687 14.4926 H 1 RES   0.0000
2953 H -6.21555 -10.6804 -12.0529 H 1 RES   0.0000
2954 H -7.13609 -4.74247 14.7773 H 1 RES   0.0000
2955 H -13.9617 -11.5347 -8.57605 H 1 RES   0.0000
2956 H 1.5594 -9.2671 0.354514 H 1 RES   0.0000
2957 H 2.77775 8.35783 7.10448 H 1 RES   0.0000
2958 H 2.25774 4.72402 -0.84045 H 1 RES   0.0000
2959 H -4.61302 13.7603 -8.62649 H 1 RES   0.0000
2960 H 9.96848 5.86185 9.38791 H 1 RES   0.0000
2961 H 11.7816 13.4846 -8.95443 H 1 RES   0.0000
2962 H 14.5278 -2.27023 -4.9011 H 1 RES   0.0000
2963 H 12.3835 8.2801 10.3115 H 1 RES   0.0000
2964 H -7.01013 1.07748 11.0552 H 1 RES   0.0000
2965 H 14.5655 -4.91437 -9.4122 H 1 RES   0.0000
2966 H -12.0596 -3.39772 -14.4424 H 1 RES   0.0000
2967 H -9.61391 -5.40962 8.18421 H 1 RES   0.0000
2968 H -13.0331 9.61208 -9.76333 H 1 RES   0.0000
2969 H 8.71751 3.13646 -9.38452 H 1 RES   0.0000
2970 H 12.1601 8.1221 4.52704 H 1 RES   0.0000
2971 H -12.0403 -9.75924 -1.13918 H 1 RES   0.0000
2972 H 8.76333 13.3701 1.78097 H 1 RES   0.0000
2973 H 0.657004 4.99786 -5.75664 H 1 RES   0.0000
2974 H -8.99035 9.09484 -1.84847 H 1 RES   0.0000
2975 H -11.38 2.0758 -14.1416 H 1 RES   0.0000
2976 H 2.56252 -11.2745 -7.33157 H 1 RES   0.0000
2977 H 11.5962 -10.4754 -5.82057 H 1 RES   0.0000
2978 H -10.1205 -7.81497 6.56917 H 1 RES   0.0000
2979 H 10.3717 -11.4598 -4.61773 H 1 RES   0.0000
2980 H 4.0586 -5.10285 -14.2433 H 1 RES   0.0000
2981 H 8.08809 -11.5557 -2.30583 H 1 RES   0.0000
2982 H 10.2363 3.56503 2.83643 H 1 RES   0.0000
2983 H -14.2449 13.661 2.85795 H 1 RES   0.0000
2984 H 11.6111 -6.781 -2.90168 H 1 RES   0.0000
2985 H 0.878373 9.38759 14.6301 H 1 RES   0.0000
2986 H 12.1931 -1.58812 -0.752718 H 1 RES   0.0000
2987 H 6.25852 -2.8546 -2.90625 H 1 RES   0.0000
2988 H -0.925284 -3.81169 13.1036 H 1 RES   0.0000
2989 H 14.5005 -11.6407 -10.9413 H 1 RES   0.0000
2990 H -8.30576 -0.0888854 -4.73617 H 1 RES   0.0000
2991 H 13.1364 -5.69629 13.7129 H 1 RES   0.0000
2992 H 5.24226 -12.2541 3.12219 H 1 RES   0.0000
2993 H 12.4369 10.1278 -14.1807 H 1 RES   0.0000
2994 H -11.4496 10.4531 14.598 H 1 RES   0.0000
2995 H -6.13471 8.46914 8.45957 H 1 RES   0.0000
2996 H -4.54501 1.20383 -6.24854 H 1 RES   0.0000
2997 H 10.3448 -14.02 -14.1115 H 1 RES   0.0000
2998 H 9.52216 -5.64481 2.75769 H 1 RES   0.0000
2999 H -5.26304 -4.44945 4.09416 H 1 RES   0.0000
3000 H 2.11597 -12.9784 7.27531 H 1 RES   0.0000
3001 H -14.0415 -8.22155 2.75851 H 1 RES   0.0000
3002 H 14.3371 -6.39946 -0.272818 H 1 RES   0.0000
3003 H -8.90077 -8.04933 -10.0116 H 1 RES   0.0000
3004 H 3.41466 12.1924 -0.808276 H 1 RES   0.0000
3005 H -5.54955 -10.757 -10.4621 H 1 RES   0.0000
3006 H 6.44066 -13.8055 -12.5947 H 1 RES   0.0000
3007 H -5.8954 -9.83634 -4.77876 H 1 RES   0.0000
3008 H -1.65426 10.3574 -1.60123 H 1 RES   0.0000
3009 H -12.4253 1.46614 6.15548 H 1 RES   0.0000
3010 H 9.19699 -14.4839 -4.64652 H 1 RES   0.0000
3011 H -7.44764 2.75643 9.71786 H 1 RES   0.0000
3012 H 7.33385 -1.8471 -12.4136 H 1 RES   0.0000
3013 H -11.2798 -12.9865 -2.09715 H 1 RES   0.0000
3014 H -14.8421 12.1708 -2.52738 H 1 RES   0.0000
3015 H -0.0225053 1.8334 4.59643 H 1 RES   0.0000
3016 H -7.63875 2.56553 14.7995 H 1 RES   0.0000
3017 H -0.263566 -3.47848 -0.687682 H 1 RES   0.0000
3018 H -9.89511 -9.93617 -11.1561 H 1 RES   0.0000
3019 H -9.29532 -3.66854 -14.17 H 1 RES   0.0000
3020 H -11.6901 4.0809 1.01082 H 1 RES   0.0000
3021 H 1.08203 -2.38851 -3.4578 H 1 RES   0.0000
3022 H 0.924323 7.23548 2.04701 H 1 RES   0.0000
3023 H -6.29808 0.894813 12.0428 H 1 RES   0.0000
3024 H 4.67393 2.56888 -0.55951 H 1 RES   0.0000
3025 H 14.261 1.05781 -6.46442 H 1 RES   0.0000
3026 H -11.4633 6.49623 14.0789 H 1 RES   0.0000
3027 H 2.76949 5.77283 6.20913 H 1 RES   0.0000
3028 H 3.48546 3.27052 -9.48635 H 1 RES   0.0000
3029 H -2.00748 11.8486 -5.39166 H 1 RES   0.0000
3030 H 13.7035 -5.73723 12.7706 H 1 RES   0.0000
3031 H -9.08951 -9.74588 -9.78833 H 1 RES   0.0000
3032 H 7.75389 10.618 -6.03098 H 1 RES   0.0000
3033 H -14.5576 -0.713709 4.31136 H 1 RES   0.0000
3034 H -12.1157 -11.431 -10.902 H 1 RES   0.0000
3035 H 1.71806 9.65104 6.64423 H 1 RES   0.0000
3036 H 14.6605 -11.3337 11.9444 H 1 RES   0.0000
3037 H 6.6215 7.957 14.667 H 1 RES   0.0000
3038 H -14.3665 -0.0564119 12.2165 H 1 RES   0.0000
3039 H -3.52039 -12.1683 10.02 H 1 RES   0.0000
3040 H 13.6381 -5.01829 -11.6721 H 1 RES   0.0000
3041 H -12.2654 -9.96546 -6.36757 H 1 RES   0.0000
3042 H 5.27007 -5.84003 -11.4538 H 1 RES   0.0000
3043 H 4.19315 6.07627 -14.7233 H 1 RES   0.0000
3044 H 9.86133 7.2285 -14.8245 H 1 RES   0.0000
3045 H 0.707416 6.97469 -3.64796 H 1 RES   0.0000
3046 H 4.65456 3.77712 -9.34631 H 1 RES   0.0000
3047 H 10.471 6.08344 2.4549 H 1 RES   0.0000
3048 H 10.1308 -3.07271 13.714 H 1 RES   0.0000
3049 H -13.4906 -11.2268 -12.9114 H 1 RES   0.0000
3050 H 4.09344 -2.49643 8.92817 H 1 RES   0.0000
3051 H 9.99635 1.00956 -1.70717 H 1 RES   0.0000
3052 H -11.3823 10.1463 12.3135 H 1 RES   0.0000
3053 H -1.15831 13.517 1.74036 H 1 RES   0.0000
3054 H -12.5033 -14.7411 1.77574 H 1 RES   0.0000
3055 H 0.526514 4.09794 2.87055 H 1 RES   0.0000
3056 H 1.94585 6.46189 9.87377 H 1 RES   0.0000
3057 H 10.1099 -10.7338 -2.04905 H 1 RES   0.0000
3058 H -1.30294 10.7003 -8.79398 H 1 RES   0.0000
3059 H 5.08128 3.3675 -2.37849 H 1 RES   0.0000
3060 H 4.2596 -5.39399 13.7744 H 1 RES   0.0000
3061 H -5.60537 -7.33689 6.73791 H 1 RES   0.0000
3062 H 1.73262 14.2819 3.85876 H 1 RES   0.0000
3063 H 1.40075 -14.1224 -2.48947 H 1 RES   0.0000
3064 H -1.55078 13.4103 0.305276 H 1 RES   0.0000
3065 H 6.73253 -2.93849 6.92979 H 1 RES   0.0000
3066 H -13.5933 12.9315 -11.9022 H 1 RES   0.0000
3067 H 12.6221 1.14217 13.0467 H 1 RES   0.0000
3068 H 1.44584 10.5974 -10.0187 H 1 RES   0.0000
3069 H 0.995045 -6.41042 10.5745 H 1 RES   0.0000
3070 H -3.72494 7.32505 -13.4842 H 1 RES   0.0000
3071 H -13.4647 -10.1349 13.8194 H 1 RES   0.0000
3072 H 13.6718 13.7957 1.20388 H 1 RES   0.0000
3073 H 12.6979 14.6123 1.56655 H 1 RES   0.0000
3074 H -11.7293 -6.10196 10.3143 H 1 RES   0.0000
3075 H 1.90605 13.4455 10.4863 H 1 RES   0.0000
3076 H -3.63772 -7.37061 -2.54087 H 1 RES   0.0000
3077 H -13.7239 5.41748 1.46282 H 1 RES   0.0000
3078 H -8.79229 7.03905 2.21745 H 1 RES   0.0000
3079 H 5.30241 9.79028 2.80632 H 1 RES   0.0000
3080 H -2.65453 -11.8305 -5.5064 H 1 RES   0.0000
3081 H -2.48591 7.60165 9.41062 H 1 RES   0.0000
3082 H -5.78296 11.6024 -11.2671 H 1 RES   0.0000
3083 H 7.30138 -8.33243 -6.86775 H 1 RES   0.0000
3084 H -14.2901 11.0184 14.8217 H 1 RES   0.0000
3085 H 13.9759 -8.13236 7.81183 H 1 RES   0.0000
3086 H 0.557199 6.09371 -2.57759 H 1 RES   0.0000
3087 H 3.10018 -11.3638 -5.74078 H 1 RES   0.0000
3088 H -10.0036 9.10947 -13.4907 H 1 RES   0.0000
3089 H 8.03989 10.2324 7.9062 H 1 RES   0.0000
3090 H -6.5528 -3.21805 -12.9669 H 1 RES   0.0000
3091 H 9.10317 8.9822 -7.74925 H 1 RES   0.0000
3092 H -6.69944 -7.09659 -13.4822 H 1 RES   0.0000
3093 H -12.3763 9.28058 14.0642 H 1 RES   0.0000
3094 H -9.32587 1.14976 -0.353319 H 1 RES   0.0000
3095 H 9.46832 -7.63722 -14.3815 H 1 RES   0.0000
3096 H -9.89365 -12.4897 13.5596 H 1 RES   0.0000
3097 H -2.80594 -4.887 13.302 H 1 RES   0.0000
3098 H -9.25048 11.0335 3.5397 H 1 RES   0.0000
3099 H 9.8736 -6.32039 -14.6775 H 1 RES   0.0000
3100 H 5.88237 6.04446 12.4267 H 1 RES   0.0000
3101 H -10.9003 -7.52613 7.52793 H 1 RES   0.0000
3102 H 12.3459 2.31027 14.4138 H 1 RES   0.0000
3103 H -8.75466 1.66527 -2.79941 H 1 RES   0.0000
3104 H -2.29074 -10.3626 11.8822 H 1 RES   0.0000
3105 H 5.93902 14.1583 3.15673 H 1 RES   0.0000
3106 H 11.298 -1.56858 -4.51869 H 1 RES   0.0000
3107 H -6.90981 7.62622 8.53802 H 1 RES   0.0000
3108 H -2.60729 -4.39631 -12.7103 H 1 RES   0.0000
3109 H -10.1403 10.4108 3.33468 H 1 RES   0.0000
3110 H 13.1997 -9.08352 -0.155937 H 1 RES   0.0000
3111 H 9.23047 3.52413 0.773486 H 1 RES   0.0000
3112 H -4.34835 -8.46422 -11.6309 H 1 RES   0.0000
3113 H 9.19889 12.6382 -4.04867 H 1 RES   0.0000
3114 H 0.0681939 14.8092 -8.18856 H 1 RES   0.0000
3115 H -1.73971 -10.9792 4.44766 H 1 RES   0.0000
3116 H -14.5355 -2.79801 13.7104 H 1 RES   0.0000
3117 H -5.78554 -10.5899 0.120893 H 1 RES   0.0000
3118 H 4.79872 -8.12169 7.33309 H 1 RES   0.0000
3119 H 5.92811 12.9175 -12.2671 H 1 RES   0.0000
3120 H 8.41291 -4.10093 14.8281 H 1 RES   0.0000
3121 H 9.3058 12.1985 -14.1367 H 1 RES   0.0000
3122 H 6.85573 5.28456 -5.05742 H 1 RES   0.0000
3123 H 3.28908 -9.61471 10.8798 H 1 RES   0.0000
3124 H 12.3199 -0.964311 -9.35893 H 1 RES   0.0000
3125 H 9.98758 7.77917 9.80704 H 1 RES   0.0000
3126 H 3.46346 -8.45187 -0.184076 H 1 RES   0.0000
3127 H -10.0714 0.363438 -2.42697 H 1 RES   0.0000
3128 H -4.1648 -13.0238 2.22151 H 1 RES   0.0000
3129 H 1.2518 3.58584 13.9723 H 1 RES   0.0000
3130 H -8.29997 -8.48665 10.4329 H 1 RES   0.0000
3131 H -0.896942 12.3408 -9.17958 H 1 RES   0.0000
3132 H -3.7932 0.93569 -9.47542 H 1 RES   0.0000
3133 H -8.17223 4.56137 0.280242 H 1 RES   0.0000
3134 H 6.53028 -8.55053 -9.98256 H 1 RES   0.0000
3135 H 0.764107 5.40838 6.97119 H 1 RES   0.0000
3136 H -10.0012 -8.34923 -12.1335 H 1 RES   0.0000
3137 H -9.23469 -10.6679 -11.9521 H 1 RES   0.0000
3138 H -10.7181 10.7818 -10.1733 H 1 RES   0.0000
3139 H 10.9788 -10.0888 1.1623 H 1 RES   0.0000
3140 H 4.73907 -3.32217 -7.16689 H 1 RES   0.0000
3141 H -3.9189 2.46927 -9.04865 H 1 RES   0.0000
3142 H 10.0407 -1.45076 3.80847 H 1 RES   0.0000
3143 H -9.83849 -6.37554 -13.4364 H 1 RES   0.0000
3144 H -2.02504 -14.4626 14.2741 H 1 RES   0.0000
3145 H 10.6397 3.83453 -5.39192 H 1 RES   0.0000
3146 H 13.755 -3.75235 5.20603 H 1 RES   0.0000
3147 H -3.34572 -12.8543 -3.66697 H 1 RES   0.0000
3148 H -9.87556 -7.54422 -3.91547 H 1 RES   0.0000
3149 H -4.80726 -14.6339 -11.1537 H 1 RES   0.0000
3150 H -4.87658 13.3837 -0.829931 H 1 RES   0.0000
3151 H -0.783908 4.71212 -11.8358 H 1 RES   0.0000
3152 H -0.585005 9.42677 9.40022 H 1 RES   0.0000
3153 H 12.5374 -6.36304 7.22201 H 1 RES   0.0000
3154 H -10.2764 -2.07134 -11.7857 H 1 RES   0.0000
3155 H -13.0169 -9.03335 14.5211 H 1 RES   0.0000
3156 H -5.83422 3.70404 5.81778 H 1 RES   0.0000
3157 H -1.74604 -0.932543 -11.2994 H 1 RES   0.0000
3158 H 6.52781 5.45013 -7.13809 H 1 RES   0.0000
3159 H 12.1896 1.82709 -0.902275 H 1 RES   0.0000
3160 H 14.6139 14.0827 11.7601 H 1 RES   0.0000
3161 H 4.01973 7.89952 7.43725 H 1 RES   0.0000
3162 H 0.0654409 -6.89265 -3.02759 H 1 RES   0.0000
3163 H -2.8888 5.87229 8.45497 H 1 RES   0.0000
3164 H -4.73733 -12.4079 -3.86606 H 1 RES   0.0000
3165 H 7.50527 -10.8693 8.29912 H 1 RES   0.0000
3166 H -5.00888 -12.2948 5.5082 H 1 RES   0.0000
3167 H 14.7407 -2.32182 -7.65052 H 1 RES   0.0000
3168 H -13.4038 -13.4286 -4.44603 H 1 RES   0.0000
3169 H 13.8317 -5.3877 -0.649406 H 1 RES   0.0000
3170 H 13.7301 -9.28124 13.2434 H 1 RES   0.0000
3171 H 1.74812 6.17549 12.0626 H 1 RES   0.0000
3172 H 8.97225 -12.992 -0.97447 H 1 RES   0.0000
3173 H -11.0506 13.2775 -0.890666 H 1 RES   0.0000
3174 H 11.0905 -11.5454 -14.6264 H 1 RES   0.0000
3175 H -0.980452 7.52352 9.82587 H 1 RES   0.0000
3176 H 10.2519 7.91865 -6.48622 H 1 RES   0.0000
3177 H 7.02262 0.27613 -8.56118 H 1 RES   0.0000
3178 H 3.30283 5.99704 -5.96087 H 1 RES   0.0000
3179 H 11.8165 -11.2299 -13.9708 H 1 RES   0.0000
3180 H 1.05055 -6.06897 0.4887 H 1 RES   0.0000
3181 H 14.1221 1.83571 -5.38965 H 1 RES   0.0000
3182 H 9.66603 -9.89558 -7.94808 H 1 RES   0.0000
3183 H -11.6606 5.79947 12.3687 H 1 RES   0.0000
3184 H 2.41444 -11.2458 -12.9156 H 1 RES   0.0000
3185 H 5.32187 14.7592 -1.75819 H 1 RES   0.0000
3186 H 3.25012 -13.5899 14.3575 H 1 RES   0.0000
3187 H 5.26347 1.54228 11.2492 H 1 RES   0.0000
3188 H 1.94258 9.26892 -3.87998 H 1 RES   0.0000
3189 H 14.101 4.33933 -5.47424 H 1 RES   0.0000
3190 H -3.88971 14.4321 7.92914 H 1 RES   0.0000
3191 H -7.36218 -11.2663 -14.6268 H 1 RES   0.0000
3192 H 14.3118 -11.2388 -9.935 H 1 RES   0.0000
3193 H -11.3956 -8.62424 -1.58221 H 1 RES   0.0000
3194 H -13.9828 -2.85009 -12.0502 H 1 RES   0.0000
3195 H -13.0623 9.85518 -8.46519 H 1 RES   0.0000
3196 H -3.75835 8.50422 8.64132 H 1 RES   0.0000
3197 H 12.0764 -14.1479 -1.47738 H 1 RES   0.0000
3198 H 5.2078 6.70669 13.8819 H 1 RES   0.0000
3199 H -7.3377 -6.66341 11.9444 H 1 RES   0.0000
3200 H -10.4775 12.3833 -8.3156 H 1 RES   0.0000
3201 H -12.2917 -13.2775 -3.9602 H 1 RES   0.0000
3202 H -6.49555 4.58587 -12.6956 H 1 RES   0.0000
3203 H 7.21859 9.00161 -9.40024 H 1 RES   0.0000
3204 H 7.08334 7.69538 -11.3241 H 1 RES   0.0000
3205 H 12.1027 -8.93922 -14.1355 H 1 RES   0.0000
3206 H 14.1 -5.77478 -10.2654 H 1 RES   0.0000
3207 H 9.74696 -13.4596 2.42844 H 1 RES   0.0000
3208 H 10.1764 9.17016 -2.15822 H 1 RES   0.0000
3209 H -13.9242 -11.851 12.5775 H 1 RES   0.0000
3210 H -4.34103 -12.8743 8.66211 H 1 RES   0.0000
3211 H 14.3901 -12.5842 -5.26495 H 1 RES   0.0000
3212 H -4.36146 9.43121 -8.03307 H 1 RES   0.0000
3213 H -10.1332 -2.74621 -8.09949 H 1 RES   0.0000
3214 H 12.6628 -5.33356 -7.06251 H 1 RES   0.0000
3215 H 14.8034 -8.49642 -7.79043 H 1 RES   0.0000
3216 H 4.17749 10.0395 5.966 H 1 RES   0.0000
3217 H -11.0902 -4.34604 -5.69938 H 1 RES   0.0000
3218 H -3.05455 12.7221 -9.23197 H 1 RES   0.0000
3219 H -10.3435 3.08133 -13.4526 H 1 RES   0.0000
3220 H 13.242 -14.5087 2.32529 H 1 RES   0.0000
3221 H 1.18839 -12.5705 2.12297 H 1 RES   0.0000
3222 H 7.80261 9.62379 -10.9179 H 1 RES   0.0000
3223 H 6.02623 12.1473 5.14367 H 1 RES   0.0000
3224 H -9.69176 14.3861 -8.36587 H 1 RES   0.0000
3225 H 8.32715 -9.73723 -3.45237 H 1 RES   0.0000
3226 H 7.84221 -2.92988 10.8537 H 1 RES   0.0000
3227 H -11.8486 13.204 6.14319 H 1 RES   0.0000
3228 H 12.0946 1.3337 -3.48599 H 1 RES   0.0000
3229 H -2.34369 -4.76211 1.70736 H 1 RES   0.0000
3230 H 8.24336 6.75058 -14.1877 H 1 RES   0.0000
3231 H -11.2879 -4.92399 11.0897 H 1 RES   0.0000
3232 H 10.285 -10.8218 7.1992 H 1 RES   0.0000
3233 H -10.2774 -11.5729 -2.21982 H 1 RES   0.0000
3234 H -10.6685 0.294117 -3.90961 H 1 RES   0.0000
3235 H 2.07353 9.98591 5.65182 H 1 RES   0.0000
3236 H -3.28299 13.8475 -6.39308 H 1 RES   0.0000
3237 H 11.7822 3.19037 -13.8479 H 1 RES   0.0000
3238 H -8.91473 -0.08379 -0.372886 H 1 RES   0.0000
3239 H -7.53529 -7.03396 5.37908 H 1 RES   0.0000
3240 H 5.12551 -13.646 -6.22884 H 1 RES   0.0000
3241 H 6.43707 5.02218 -14.1663 H 1 RES   0.0000
3242 H -13.4585 -8.66801 5.22959 H 1 RES   0.0000
3243 H -11.954 11.9166 -3.13383 H 1 RES   0.0000
3244 H -13.062 14.4401 4.00339 H 1 RES   0.0000
3245 H -13.0419 4.65611 -1.64852 H 1 RES   0.0000
3246 H -14.4808 7.64551 -12.4065 H 1 RES   0.0000
3247 H 7.34154 -3.75744 -9.88112 H 1 RES   0.0000
3248 H 5.72269 11.3265 12.0784 H 1 RES   0.0000
3249 H -7.46369 0.7125 -4.04021 H 1 RES   0.0000
3250 H 0.313153 14.6242 6.61172 H 1 RES   0.0000
3251 H 14.6758 7.17015 -7.20502 H 1 RES   0.0000
3252 H 0.607964 8.7679 13.6119 H 1 RES   0.0000
3253 H -5.39507 -3.94427 -11.709 H 1 RES   0.0000
3254 H -12.1875 11.5086 -9.24883 H 1 RES   0.0000
3255 H -9.33154 -3.87434 -11.6608 H 1 RES   0.0000
3256 H -0.25033 6.34593 -7.97779 H 1 RES   0.0000
3257 H -0.697413 7.0766 7.57417 H 1 RES   0.0000
3258 H 7.55152 -1.64895 4.61336 H 1 RES   0.0000
3259 H 8.20245 9.15145 8.66684 H 1 RES   0.0000
3260 H -9.24233 -0.966282 -12.9407 H 1 RES   0.0000
3261 H 7.50046 7.35873 11.2257 H 1 RES   0.0000
3262 H -12.0068 -14.3105 13.9162 H 1 RES   0.0000
3263 H -14.0504 13.9285 -11.0192 H 1 RES   0.0000
3264 H -1.81425 -12.5699 13.6877 H 1 RES   0.0000
3265 H 10.5792 0.480727 9.70089 H 1 RES   0.0000
3266 H 9.80086 -12.8793 -10.312 H 1 RES   0.0000
3267 H -9.28205 3.05657 2.7786 H 1 RES   0.0000
3268 H 8.86469 -5.00865 -6.4803 H 1 RES   0.0000
3269 H -8.70849 10.8449 -14.7031 H 1 RES   0.0000
3270 H 9.20501 -4.82366 1.75352 H 1 RES   0.0000
3271 H -11.3277 11.2512 11.3658 H 1 RES   0.0000
3272 H -13.6677 -1.57598 1.27891 H 1 RES   0.0000
3273 H -3.2394 3.57181 5.19433 H 1 RES   0.0000
3274 H 11.4867 10.6593 13.2957 H 1 RES   0.0000
3275 H -2.73712 11.7026 5.13251 H 1 RES   0.0000
3276 H -4.58972 -8.83426 -0.799844 H 1 RES   0.0000
3277 H -8.09622 2.27408 7.09468 H 1 RES   0.0000
3278 H -4.61805 -7.13612 -2.1989 H 1 RES   0.0000
3279 H 5.13861 -14.2865 -0.0857259 H 1 RES   0.0000
3280 H 4.68316 6.45889 2.77377 H 1 RES   0.0000
3281 H 8.11743 -3.74183 -3.67184 H 1 RES   0.0000
3282 H -14.4719 4.64385 12.2907 H 1 RES   0.0000
3283 H -12.8168 2.92992 -1.16557 H 1 RES   0.0000
3284 H -0.8727 6.15463 8.18508 H 1 RES   0.0000
3285 H 9.62628 0.214186 -6.33386 H 1 RES   0.0000
3286 H 9.33771 10.3586 -14.3497 H 1 RES   0.0000
3287 H -4.87562 -12.6194 -2.0214 H 1 RES   0.0000
3288 H -12.5084 14.5103 3.10243 H 1 RES   0.0000
3289 H -6.79351 -8.26676 -10.1567 H 1 RES   0.0000
3290 H -5.34762 -4.95179 -6.38426 H 1 RES   0.0000
3291 H -3.04741 -9.99392 -12.2506 H 1 RES   0.0000
3292 H 14.4436 -11.9086 -1.25667 H 1 RES   0.0000
3293 H 13.1502 -12.0528 -5.7178 H 1 RES   0.0000
3294 H -14.7023 -11.2704 -14.4977 H 1 RES   0.0000
3295 H -3.44714 7.62408 -0.421455 H 1 RES   0.0000
3296 H -13.869 11.4295 12.7675 H 1 RES   0.0000
3297 H -6.05424 -3.73932 -8.6927 H 1 RES   0.0000
3298 H 5.50273 -5.05357 -6.70185 H 1 RES   0.0000
3299 H -10.7541 8.33315 13.5214 H 1 RES   0.0000
3300 H 1.16019 3.38418 -9.77638 H 1 RES   0.0000
3301 H 8.38548 -13.8199 -3.33107 H 1 RES   0.0000
3302 H 8.30773 -12.5425 -13.6229 H 1 RES   0.0000
3303 H 13.3744 -4.95012 14.4356 H 1 RES   0.0000
3304 H -8.18705 -11.5317 7.77621 H 1 RES   0.0000
3305 H 3.32105 6.06043 0.290321 H 1 RES   0.0000
3306 H 12.4049 3.53014 -5.18374 H 1 RES   0.0000
3307 H -11.0936 11.3648 12.9367 H 1 RES   0.0000
3308 H 9.22546 -0.441478 -2.00028 H 1 RES   0.0000
3309 H -5.75036 8.69563 -1.57793 H 1 RES   0.0000
3310 H -9.99639 9.09821 0.235791 H 1 RES   0.0000
3311 H 2.26065 -1.3481 1.85625 H 1 RES   0.0000
3312 H -2.10106 -14.1293 5.54262 H 1 RES   0.0000
3313 H 13.7365 5.52828 -10.9898 H 1 RES   0.0000
3314 H -13.4428 6.97242 -13.2871 H 1 RES   0.0000
3315 H -8.76527 -4.58332 -13.2315 H 1 RES   0.0000
3316 H -6.51135 11.6121 -7.88914 H 1 RES   0.0000
3317 H -14.0732 -9.25112 -12.5035 H 1 RES   0.0000
3318 H 12.329 -0.559753 13.0444 H 1 RES   0.0000
3319 H 5.41296 4.78104 10.0335 H 1 RES   0.0000
3320 H 9.25407 9.55213 9.78921 H 1 RES   0.0000
3321 H -3.43882 12.9704 -0.89186 H 1 RES   0.0000
3322 H 8.91277 4.05232 12.5536 H 1 RES   0.0000
3323 H 12.378 12.647 -9.78838 H 1 RES   0.0000
3324 H 7.94662 7.80405 -12.8391 H 1 RES   0.0000
3325 H 3.85868 8.75448 2.56393 H 1 RES   0.0000
3326 H -3.71129 2.27638 -14.6916 H 1 RES   0.0000
3327 H 2.88098 8.85808 -5.37687 H 1 RES   0.0000
3328 H -5.63508 -14.7007 2.15772 H 1 RES   0.0000
3329 H 2.38898 0.838731 -14.7148 H 1 RES   0.0000
3330 H 13.8792 1.90474 10.1863 H 1 RES   0.0000
3331 H -14.6607 5.29524 -12.7956 H 1 RES   0.0000
3332 H 5.58004 12.9337 -1.53342 H 1 RES   0.0000
3333 H 0.214333 -5.72949 -5.12959 H 1 RES   0.0000
3334 H -5.2495 -9.30654 5.82636 H 1 RES   0.0000
3335 H 3.43448 -12.5278 -1.87135 H 1 RES   0.0000
3336 H -10.405 -12.5499 12.5115 H 1 RES   0.0000
3337 H -4.85535 4.17795 -3.5866 H 1 RES   0.0000
3338 H 10.1155 1.64412 12.1006 H 1 RES   0.0000
3339 H -8.21723 8.75971 10.5224 H 1 RES   0.0000
3340 H -6.21833 10.355 -4.73278 H 1 RES   0.0000
3341 H 10.5564 2.11241 -2.18702 H 1 RES   0.0000
3342 H -9.03554 -4.76553 12.9015 H 1 RES   0.0000
3343 H -4.97494 -2.00068 -9.72384 H 1 RES   0.0000
3344 H -3.96343 -3.30994 11.7254 H 1 RES   0.0000
3345 H 3.8729 11.7063 11.9089 H 1 RES   0.0000
3346 H 3.41621 -10.2303 -2.5012 H 1 RES   0.0000
3347 H -4.81802 -6.79965 -5.02518 H 1 RES   0.0000
3348 H 0.733452 -14.0667 -6.25763 H 1 RES   0.0000
3349 H -4.74852 -5.03844 -7.09524 H 1 RES   0.0000
3350 H 7.28392 -11.1054 -10.6565 H 1 RES   0.0000
3351 H 3.33056 1.37227 -3.67312 H 1 RES   0.0000
3352 H -10.0885 3.86825 -3.06032 H 1 RES   0.0000
3353 H -2.06995 12.492 -14.3 H 1 RES   0.0000
3354 H 9.72038 -3.95845 6.72599 H 1 RES   0.0000
3355 H 11.7373 -11.5555 -6.37253 H 1 RES   0.0000
3356 H -3.04671 -0.33642 -1.58383 H 1 RES   0.0000
3357 H -7.82318 -5.66488 7.39501 H 1 RES   0.0000
3358 H 14.3103 -2.95485 5.7735 H 1 RES   0.0000
3359 H 4.13699 11.5459 8.55288 H 1 RES   0.0000
3360 H -5.27875 -13.646 1.76396 H 1 RES   0.0000
3361 H 5.21538 3.82631 9.24454 H 1 RES   0.0000
3362 H 0.0375135 -6.0896 -9.75029 H 1 RES   0.0000
3363 H -10.583 -9.05493 4.98085 H 1 RES   0.0000
3364 H 2.95556 -8.53337 -10.0298 H 1 RES   0.0000
3365 H 1.85184 -13.3469 9.77869 H 1 RES   0.0000
3366 H 8.64536 0.576918 -1.17728 H 1 RES   0.0000
3367 H 5.56174 -8.68999 8.87663 H 1 RES   0.0000
3368 H 3.98517 11.5076 2.10396 H 1 RES   0.0000
3369 H -3.31756 14.1619 -7.50703 H 1 RES   0.0000
3370 H 3.15588 -8.51003 6.30689 H 1 RES   0.0000
3371 H 14.5831 -5.9497 3.83119 H 1 RES   0.0000
3372 H 2.37973 14.7985 -13.871 H 1 RES   0.0000
3373 H -1.34778 -2.28619 -1.50306 H 1 RES   0.0000
3374 H -4.23097 9.85649 1.51832 H 1 RES   0.0000
3375 H -3.44399 10.2925 12.5797 H 1 RES   0.0000
3376 H -2.3233 0.574083 -1.69499 H 1 RES   0.0000
3377 H -6.29744 3.51059 1.69306 H 1 RES   0.0000
3378 H 5.86371 -0.804319 -1.981 H 1 RES   0.0000
3379 H -14.6806 -7.60147 0.460115 H 1 RES   0.0000
3380 H 11.0371 14.2238 14.6212 H 1 RES   0.0000
3381 H 2.75921 10.0899 2.22033 H 1 RES   0.0000
3382 H 6.96428 14.1212 -1.06235 H 1 RES   0.0000
3383 H -3.16737 0.23915 6.09761 H 1 RES   0.0000
3384 H 4.14738 -11.6927 -1.7777 H 1 RES   0.0000
3385 H -13.1653 -7.09948 -12.4144 H 1 RES   0.0000
3386 H -12.9512 -8.79358 -4.89193 H 1 RES   0.0000
3387 H -8.27952 5.89285 6.30129 H 1 RES   0.0000
3388 H 1.89947 9.92308 13.9415 H 1 RES   0.0000
3389 H 0.224098 11.9539 -5.22102 H 1 RES   0.0000
3390 H -14.7507 12.5914 14.1392 H 1 RES   0.0000
3391 H -10.0866 12.983 12.6866 H 1 RES   0.0000
3392 H -14.2848 12.892 -13.3544 H 1 RES   0.0000
3393 H 5.06794 -5.90395 7.23917 H 1 RES   0.0000
3394 H -1.49794 -10.661 -2.25284 H 1 RES   0.0000
3395 H 2.18003 -12.7608 -7.98731 H 1 RES   0.0000
3396 H 1.83863 8.37891 12.7106 H 1 RES   0.0000
3397 H -9.94965 -10.3615 8.12421 H 1 RES   0.0000
3398 H 12.2189 8.93035 -14.445 H 1 RES   0.0000
3399 H -14.2492 -4.59341 0.618093 H 1 RES   0.0000
3400 H -3.1211 14.2488 -5.27654 H 1 RES   0.0000
3401 H -9.02773 -13.9041 8.88851 H 1 RES   0.0000
3402 H 4.94531 -9.82586 -6.16289 H 1 RES   0.0000
3403 H -2.66713 -1.68447 -6.11061 H 1 RES   0.0000
3404 H -0.116478 7.06706 5.57128 H 1 RES   0.0000
3405 H 5.89337 -1.62638 5.24826 H 1 RES   0.0000
3406 H 10.8693 14.6887 -7.05106 H 1 RES   0.0000
3407 H 10.2127 -0.457295 -13.9199 H 1 RES   0.0000
3408 H -8.67985 13.0488 1.30865 H 1 RES   0.0000
3409 H -1.545 -7.15263 6.53798 H 1 RES   0.0000
3410 H 11.4888 -6.09924 12.5873 H 1 RES   0.0000
3411 H -9.08574 1.95804 -11.7262 H 1 RES   0.0000
3412 H 9.22083 -13.6568 -14.3284 H 1 RES   0.0000
3413 H 4.42966 6.10214 -7.0298 H 1 RES   0.0000
3414 H 9.96834 9.6767 -8.1202 H 1 RES   0.0000
3415 H -12.8994 1.78991 -2.0022 H 1 RES   0.0000
3416 H 10.0256 -3.62906 9.30398 H 1 RES   0.0000
3417 H 4.06163 -4.7112 1.91635 H 1 RES   0.0000
3418 H -3.18055 7.17415 -2.81967 H 1 RES   0.0000
3419 H 10.654 -8.2389 7.63714 H 1 RES   0.0000
3420 H 7.77302 -10.3216 -14.0912 H 1 RES   0.0000
3421 H 12.3615 -4.65579 14.2341 H 1 RES   0.0000
3422 H 1.80117 10.6506 3.6726 H 1 RES   0.0000
3423 H 10.8928 4.89912 -7.17365 H 1 RES   0.0000
3424 H -0.0297403 -3.00326 7.23689 H 1 RES   0.0000
3425 H -12.9742 12.801 -3.38302 H 1 RES   0.0000
3426 H -2.39084 -9.06784 -7.3014 H 1 RES   0.0000
3427 H -8.90824 -7.96206 -7.01762 H 1 RES   0.0000
3428 H -9.45539 -4.88988 7.06394 H 1 RES   0.0000
3429 H -9.74134 10.5993 9.61168 H 1 RES   0.0000
3430 H 10.3896 -13.341 -1.78559 H 1 RES   0.0000
3431 H -3.56539 -14.0654 5.71724 H 1 RES   0.0000
3432 H -0.635867 12.4638 -12.7042 H 1 RES   0.0000
3433 H 8.25337 -2.7961 -2.48096 H 1 RES   0.0000
3434 H -3.19237 10.6466 14.5611 H 1 RES   0.0000
3435 H 4.2153 -7.22328 8.3823 H 1 RES   0.0000
3436 H -0.0153142 -0.259628 12.6906 H 1 RES   0.0000
3437 H -4.83293 8.3187 -4.30532 H 1 RES   0.0000
3438 H 7.15241 12.5813 6.72573 H 1 RES   0.0000
3439 H -1.62864 -4.67893 -1.34721 H 1 RES   0.0000
3440 H 3.3966 10.6072 0.381757 H 1 RES   0.0000
3441 H 8.71682 -6.17562 -0.314133 H 1 RES   0.0000
3442 H 12.1322 -8.45564 13.5638 H 1 RES   0.0000
3443 H -2.13502 -0.465399 -8.34284 H 1 RES   0.0000
3444 H -10.4179 -10.976 0.814212 H 1 RES   0.0000
3445 H -4.03414 3.18524 -5.12838 H 1 RES   0.0000
3446 H -3.67031 -3.74502 -3.43592 H 1 RES   0.0000
3447 H 11.045 -9.94893 10.4517 H 1 RES   0.0000
3448 H -11.1973 -13.5156 9.37329 H 1 RES   0.0000
3449 H 13.5293 8.2796 -7.58294 H 1 RES   0.0000
3450 H 0.624976 13.5687 -4.09562 H 1 RES   0.0000
3451 H 1.43609 5.28166 2.7307 H 1 RES   0.0000
3452 H -9.60577 -9.84914 10.0237 H 1 RES   0.0000
3453 H 3.79822 7.15481 3.61926 H 1 RES   0.0000
3454 H 11.0601 5.10472 -2.0801 H 1 RES   0.0000
3455 H -12.4474 -5.02076 10.0288 H 1 RES   0.0000
3456 H -12.4902 9.1124 3.35173 H 1 RES   0.0000
3457 H 13.2545 0.468079 -14.4129 H 1 RES   0.0000
3458 H 11.9426 7.43333 -7.88351 H 1 RES   0.0000
3459 H -9.1982 -1.70305 10.425 H 1 RES   0.0000
3460 H 12.8996 13.5588 3.15625 H 1 RES   0.0000
3461 H 14.5784 8.50837 2.83888 H 1 RES   0.0000
3462 H 10.0632 2.68483 -0.668854 H 1 RES   0.0000
3463 H 12.0436 2.89325 -9.59817 H 1 RES   0.0000
3464 H -8.73388 9.68015 13.7267 H 1 RES   0.0000
3465 H -3.58767 -12.9159 7.69111 H 1 RES   0.0000
3466 H -4.63099 -2.11934 3.99976 H 1 RES   0.0000
3467 H 0.413251 -1.23518 2.79029 H 1 RES   0.0000
3468 H -14.1029 11.3598 2.60324 H 1 RES   0.0000
3469 H 13.2469 -3.40917 -10.7105 H 1 RES   0.0000
3470 H 1.71761 -12.0018 8.19277 H 1 RES   0.0000
3471 H 3.41199 14.3145 -11.7996 H 1 RES   0.0000
3472 H 13.0865 -9.62557 -12.6487 H 1 RES   0.0000
3473 H -5.25293 12.3194 -10.7312 H 1 RES   0.0000
3474 H -14.4848 4.08744 -10.0482 H 1 RES   0.0000
3475 H -5.00964 10.379 -13.7772 H 1 RES   0.0000
3476 H -10.7103 7.69383 -11.4021 H 1 RES   0.0000
3477 H 0.936975 -12.5379 -10.3862 H 1 RES   0.0000
3478 H -10.8818 -4.46868 12.6089 H 1 RES   0.0000
3479 H 13.0839 0.342366 -6.7246 H 1 RES   0.0000
3480 H 8.94075 11.2223 -0.00576959 H 1 RES   0.0000
3481 H -0.224886 0.00270889 7.40833 H 1 RES   0.0000
3482 H -0.204921 -5.28141 -14.8372 H 1 RES   0.0000
3483 H -12.4016 12.7171 -2.38127 H 1 RES   0.0000
3484 H 4.45949 -0.235466 7.47663 H 1 RES   0.0000
3485 H 11.2761 -3.9159 -12.1667 H 1 RES   0.0000
3486 H -14.7411 11.654 -9.1225 H 1 RES   0.0000
3487 H 11.6702 8.05297 -0.808638 H 1 RES   0.0000
3488 H 14.2982 -6.92335 9.56886 H 1 RES   0.0000
3489 H -7.30429 -2.00806 -7.9968 H 1 RES   0.0000
3490 H 0.0101646 4.79768 12.45 H 1 RES   0.0000
3491 H -1.73233 12.3366 10.0931 H 1 RES   0.0000
3492 H 3.57587 -3.3989 -6.03233 H 1 RES   0.0000
3493 H -9.17675 1.04353 1.99996 H 1 RES   0.0000
3494 H 10.5181 -12.487 -14.8065 H 1 RES   0.0000
3495 H 7.828 2.46519 -2.09721 H 1 RES   0.0000
3496 H 14.2751 8.51331 -3.79402 H 1 RES   0.0000
3497 H 4.72233 -10.9094 -4.91135 H 1 RES   0.0000
3498 H -9.139 6.32513 -10.9141 H 1 RES   0.0000
3499 H -1.31821 9.09053 -4.03293 H 1 RES   0.0000
3500 H -8.044 10.0528 -14.2787 H 1 RES   0.0000
3501 H -4.4316 12.8642 -11.4864 H 1 RES   0.0000
3502 H -4.19337 -13.7174 -8.71659 H 1 RES   0.0000
3503 H -7.74545 6.94589 -4.32471 H 1 RES   0.0000
3504 H -12.9306 -2.9575 7.25054 H 1 RES   0.0000
3505 H -8.68648 -1.21644 3.60743 H 1 RES   0.0000
3506 H -1.52984 -7.47866 10.8872 H 1 RES   0.0000
3507 H -6.0371 -12.7451 13.5952 H 1 RES   0.0000
3508 H 7.69508 -2.74433 14.5286 H 1 RES   0.0000
3509 H -13.8521 12.0158 3.7043 H 1 RES   0.0000
3510 H -13.6107 5.54935 12.5647 H 1 RES   0.0000
3511 H 11.9322 14.3451 -14.5729 H 1 RES   0.0000
3512 H 12.4734 -6.13955 -2.9547 H 1 RES   0.0000
3513 H 4.02257 3.52055 5.25668 H 1 RES   0.0000
3514 H 1.57863 13.3612 4.30472 H 1 RES   0.0000
3515 H -0.853745 3.53363 -12.9397 H 1 RES   0.0000
3516 H -6.71668 -10.0992 -7.25362 H 1 RES   0.0000
3517 H 11.7812 12.7544 13.875 H 1 RES   0.0000
3518 H 8.17186 -13.5136 -11.3061 H 1 RES   0.0000
3519 H 5.39542 3.38237 2.05157 H 1 RES   0.0000
3520 H 6.77594 -6.55182 3.67116 H 1 RES   0.0000
3521 H -13.4581 -1.50966 9.45834 H 1 RES   0.0000
3522 H -3.58926 -0.14435 14.8387 H 1 RES   0.0000
3523 H -2.62759 -6.14285 -4.89746 H 1 RES   0.0000
3524 H 5.3611 12.9739 -4.63151 H 1 RES   0.0000
3525 H -4.12866 -7.37124 -7.9792 H 1 RES   0.0000
3526 H 11.1009 1.25206 11.8904 H 1 RES   0.0000
3527 H -11.1455 -8.46377 12.141 H 1 RES   0.0000
3528 H -13.8295 0.44989 -3.90989 H 1 RES   0.0000
3529 H -7.553 -9.56005 -10.2776 H 1 RES   0.0000
3530 H 8.55315 -4.94413 -9.12266 H 1 RES   0.0000
3531 H 5.74588 -3.1596 6.61993 H 1 RES   0.0000
3532 H -12.09 10.2275 -6.10554 H 1 RES   0.0000
3533 H 8.99868 2.83 -1.74677 H 1 RES   0.0000
3534 H 9.17296 -5.12099 -7.35984 H 1 RES   0.0000
3535 H 14.7018 14.1493 -0.470323 H 1 RES   0.0000
3536 H 6.15476 6.35196 -6.45288 H 1 RES   0.0000
3537 H -6.01897 -6.14827 12.4916 H 1 RES   0.0000
3538 H 4.2501 -9.05335 -8.90481 H 1 RES   0.0000
3539 H -6.68133 -12.6522 12.6916 H 1 RES   0.0000
3540 H 6.71399 10.4037 14.3824 H 1 RES   0.0000
3541 H -4.41373 -4.01022 5.67815 H 1 RES   0.0000
3542 H 3.53587 10.9754 6.24471 H 1 RES   0.0000
3543 H -11.4996 -12.5172 -13.6884 H 1 RES   0.0000
3544 H -14.3163 13.6085 0.777781 H 1 RES   0.0000
3545 H 0.816387 5.94419 10.8021 H 1 RES   0.0000
3546 H -4.90433 2.42892 -9.48203 H 1 RES   0.0000
3547 H -4.92367 -7.06767 1.84208 H 1 RES   0.0000
3548 H 9.5933 5.87986 12.5915 H 1 RES   0.0000
3549 H -4.58017 -11.3603 -7.29165 H 1 RES   0.0000
3550 H -11.4786 8.8713 -3.43806 H 1 RES   0.0000
3551 H -7.38099 -14.0188 -10.041 H 1 RES   0.0000
3552 H 4.25551 3.64163 -14.8372 H 1 RES   0.0000
3553 H 9.8345 -14.2716 -9.61713 H 1 RES   0.0000
3554 H 12.313 3.15201 -1.16787 H 1 RES   0.0000
3555 H -11.3553 4.63723 10.6697 H 1 RES   0.0000
3556 H -7.52323 -9.84314 -6.11559 H 1 RES   0.0000
3557 H -8.1012 14.5156 13.8639 H 1 RES   0.0000
3558 H 13.305 6.16769 -3.49151 H 1 RES   0.0000
3559 H -12.1275 12.874 -1.10142 H 1 RES   0.0000
3560 H 1.61961 11.1336 5.29949 H 1 RES   0.0000
3561 H 2.38711 -9.36699 8.49689 H 1 RES   0.0000
3562 H -12.9823 12.0214 12.17 H 1 RES   0.0000
3563 H -12.2949 2.55003 2.46916 H 1 RES   0.0000
3564 H -0.992602 9.1714 -11.1069 H 1 RES   0.0000
3565 H -12.6363 0.638621 -14.5007 H 1 RES   0.0000
3566 H 13.0138 4.85219 -7.43697 H 1 RES   0.0000
3567 H 0.308736 11.5933 -6.19113 H 1 RES   0.0000
3568 H 2.31096 12.3927 -5.03415 H 1 RES   0.0000
3569 H -5.37699 -14.5727 -10.1711 H 1 RES   0.0000
3570 H 5.47654 -2.27671 12.1754 H 1 RES   0.0000
3571 H -6.83786 -5.53091 -11.2492 H 1 RES   0.0000
3572 H -7.08311 -10.7005 8.62337 H 1 RES   0.0000
3573 H -8.61709 -1.66904 -12.0601 H 1 RES   0.0000
3574 H -7.80696 -4.35749 7.37683 H 1 RES   0.0000
3575 H 11.9742 -4.06249 -3.67159 H 1 RES   0.0000
3576 H 1.88378 6.40276 -13.7239 H 1 RES   0.0000
3577 H -8.41185 5.38141 -0.706741 H 1 RES   0.0000
3578 H -7.87492 6.97041 1.66679 H 1 RES   0.0000
3579 H -0.151465 11.1735 13.7589 H 1 RES   0.0000
3580 H -5.43747 -7.44011 -7.24056 H 1 RES   0.0000
3581 H -6.2012 5.62693 8.02765 H 1 RES   0.0000
3582 H -9.15693 9.69469 2.18253 H 1 RES   0.0000
3583 H 5.64893 -6.66725 0.182815 H 1 RES   0.0000
3584 H -0.287757 -2.4272 -1.13746 H 1 RES   0.0000
3585 H -14.0403 3.66327 0.781651 H 1 RES   0.0000
3586 H -4.36529 7.65824 -2.27146 H 1 RES   0.0000
3587 H -8.51275 -6.544 7.42569 H 1 RES   0.0000
3588 H -12.9921 6.15298 5.00394 H 1 RES   0.0000
3589 H -8.91516 1.92779 14.2304 H 1 RES   0.0000
3590 H 1.06404 -10.2004 2.31454 H 1 RES   0.0000
3591 H 8.55513 4.96922 12.3323 H 1 RES   0.0000
3592 H -0.123285 -10.5814 -6.86538 H 1 RES   0.0000
3593 H -2.39976 -12.3909 -14.207 H 1 RES   0.0000
3594 H -1.78399 13.5533 -5.50588 H 1 RES   0.0000
3595 H -12.0751 -10.6793 -3.96936 H 1 RES   0.0000
3596 H 4.54582 5.38872 12.173 H 1 RES   0.0000
3597 H -12.7998 -5.85796 10.6998 H 1 RES   0.0000
3598 H 6.13595 10.2823 -3.71824 H 1 RES   0.0000
3599 H 11.8654 -8.26694 8.19373 H 1 RES   0.0000
3600 H -14.315 -11.4797 -1.90612 H 1 RES   0.0000
3601 H -7.36635 10.2628 -9.05834 H 1 RES   0.0000
3602 H 4.86993 0.845919 -10.8518 H 1 RES   0.0000
3603 H -3.17154 11.5216 -7.15509 H 1 RES   0.0000
3604 H 10.9166 4.73114 -14.5868 H 1 RES   0.0000
3605 H 14.4155 11.3174 10.4082 H 1 RES   0.0000
3606 H 2.03034 -8.46885 -12.5299 H 1 RES   0.0000
3607 H 12.2551 -6.92114 -4.77039 H 1 RES   0.0000
3608 H -6.19483 8.39048 -2.43282 H 1 RES   0.0000
3609 H -7.77483 0.690748 -6.07763 H 1 RES   0.0000
3610 H 10.3341 7.48042 6.34131 H 1 RES   0.0000
3611 H -8.52653 -10.2596 10.3672 H 1 RES   0.0000
3612 H -14.179 -14.0881 -2.02011 H 1 RES   0.0000
3613 H -6.14151 -0.622781 0.844307 H 1 RES   0.0000
3614 H 2.76815 -4.1586 -2.98379 H 1 RES   0.0000
3615 H -9.51628 -5.57332 -8.83026 H 1 RES   0.0000
3616 H -3.03634 13.4777 2.57647 H 1 RES   0.0000
3617 H 7.24314 1.0472 14.4528 H 1 RES   0.0000
3618 H -5.04872 3.7444 -7.64495 H 1 RES   0.0000
3619 H -13.2465 -9.75562 -6.75349 H 1 RES   0.0000
3620 H 11.4413 -9.20871 13.2352 H 1 RES   0.0000
3621 H 5.03995 0.615499 -7.20458 H 1 RES   0.0000
3622 H -8.00592 1.22299 8.87593 H 1 RES   0.0000
3623 H 10.1357 11.7667 13.6605 H 1 RES   0.0000
3624 H -11.6905 -12.1157 -2.96752 H 1 RES   0.0000
3625 H 14.4375 11.7623 3.13693 H 1 RES   0.0000
3626 H 12.2867 11.5699 -9.76448 H 1 RES   0.0000
3627 H 9.94504 -2.8246 11.066 H 1 RES   0.0000
3628 H 7.62041 -7.02134 -14.813 H 1 RES   0.0000
3629 H -9.03204 11.3663 9.27363 H 1 RES   0.0000
3630 H -9.99484 -14.2923 5.37206 H 1 RES   0.0000
3631 H -4.53412 10.166 -1.69666 H 1 RES   0.0000
3632 H -14.0303 4.88088 -13.8369 H 1 RES   0.0000
3633 H -1.69454 -12.424 5.19695 H 1 RES   0.0000
3634 H 11.0263 13.0173 10.2777 H 1 RES   0.0000
3635 H 4.16323 -7.59677 -6.997 H 1 RES   0.0000
3636 H 5.9176 -8.01524 -5.48022 H 1 RES   0.0000
3637 H 6.93834 10.1146 -6.96403 H 1 RES   0.0000
3638 H -11.5862 -8.65283 -4.59142 H 1 RES   0.0000
3639 H -11.8197 9.37238 -0.0677229 H 1 RES   0.0000
3640 H -8.03301 14.0868 -8.50732 H 1 RES   0.0000
3641 H 3.49944 4.70818 -14.7304 H 1 RES   0.0000
3642 H 13.868 3.55409 -11.6918 H 1 RES   0.0000
3643 H 3.94907 -4.69142 4.92419 H 1 RES   0.0000
3644 H 12.2323 10.1519 -8.40465 H 1 RES   0.0000
3645 H 10.9572 -1.14795 -6.36305 H 1 RES   0.0000
3646 H -7.34789 -11.3559 -8.67974 H 1 RES   0.0000
3647 H -6.13847 11.7148 -12.2515 H 1 RES   0.0000
3648 H 11.7659 13.5464 3.07932 H 1 RES   0.0000
3649 H -10.4422 -13.2373 9.91322 H 1 RES   0.0000
3650 H -10.2556 -11.329 -14.3774 H 1 RES   0.0000
3651 H 4.31257 -5.90614 14.6923 H 1 RES   0.0000
3652 H 4.24741 -5.47303 -2.93094 H 1 RES   0.0000
3653 H 7.62019 13.4254 8.7969 H 1 RES   0.0000
3654 H 13.9603 -4.85365 1.3752 H 1 RES   0.0000
3655 H -13.03 -6.12099 4.19981 H 1 RES   0.0000
3656 H -10.4586 -2.60306 -1.98078 H 1 RES   0.0000
3657 H 2.65492 -3.69423 -8.17856 H 1 RES   0.0000
3658 H -0.55838 -6.67378 -5.17608 H 1 RES   0.0000
3659 H 2.61994 -4.32054 -6.87609 H 1 RES   0.0000
3660 H 6.08348 -2.30685 3.32575 H 1 RES   0.0000
3661 H -5.45925 10.4309 2.24808 H 1 RES   0.0000
3662 H 9.29713 -3.73262 10.1281 H 1 RES   0.0000
3663 H -1.99318 -0.665686 7.04347 H 1 RES   0.0000
3664 H -6.36081 10.5363 1.4916 H 1 RES   0.0000
3665 H 12.5235 -9.63667 1.01313 H 1 RES   0.0000
3666 H -7.52328 -3.98859 13.4579 H 1 RES   0.0000
3667 H -9.31726 -12.9576 -1.67373 H 1 RES   0.0000
3668 H 5.32113 -11.0477 -3.07616 H 1 RES   0.0000
3669 H -6.56874 12.5332 14.2637 H 1 RES   0.0000
3670 H 4.24446 9.46735 12.1234 H 1 RES   0.0000
3671 H -10.9562 -4.01882 -12.1583 H 1 RES   0.0000
3672 H -11.436 -12.0529 13.1187 H 1 RES   0.0000
3673 H 0.356144 13.9462 1.23027 H 1 RES   0.0000
3674 H -9.81057 5.76287 13.7569 H 1 RES   0.0000
3675 H -0.0524318 7.72607 -4.3295 H 1 RES   0.0000
3676 H 3.47641 -4.2417 3.16108 H 1 RES   0.0000
3677 H -9.06503 -10.492 5.88161 H 1 RES   0.0000
3678 H 12.1299 2.6414 -11.082 H 1 RES   0.0000
3679 H 12.1827 14.0509 -10.3275 H 1 RES   0.0000
3680 H 8.77185 4.03381 -11.495 H 1 RES   0.0000
3681 H -11.3987 -14.7514 8.61467 H 1 RES   0.0000
3682 H -6.66322 9.31521 7.7588 H 1 RES   0.0000
3683 H -10.3009 9.39478 6.94582 H 1 RES   0.0000
3684 H -2.28825 5.39503 -12.8657 H 1 RES   0.0000
3685 H -3.1887 -9.77884 0.942166 H 1 RES   0.0000
3686 H -2.19302 -12.2332 -8.75548 H 1 RES   0.0000
3687 H -2.38388 7.50095 7.3616 H 1 RES   0.0000
3688 H 9.06277 4.22316 -6.19681 H 1 RES   0.0000
3689 H 10.3659 11.9276 6.27179 H 1 RES   0.0000
3690 H 8.21809 -3.33684 -12.1544 H 1 RES   0.0000
3691 H -5.25789 7.55686 -6.57794 H 1 RES   0.0000
3692 H 3.44985 1.38947 9.41868 H 1 RES   0.0000
3693 H -6.73219 -7.64619 1.50669 H 1 RES   0.0000
3694 H 0.274973 3.20409 7.19627 H 1 RES   0.0000
3695 H 0.8594 -5.00373 -11.1035 H 1 RES   0.0000
3696 H 1.22582 2.20475 -12.6739 H 1 RES   0.0000
3697 H 0.372784 -13.3026 12.2131 H 1 RES   0.0000
3698 H -1.5797 7.22095 -7.51729 H 1 RES   0.0000
3699 H 2.86775 -5.14443 3.01023 H 1 RES   0.0000
3700 H -13.4341 -14.5965 11.4065 H 1 RES   0.0000
3701 H 4.73919 -10.8601 13.5653 H 1 RES   0.0000
3702 H -14.4739 -13.7665 -9.4346 H 1 RES   0.0000
3703 H -11.86 4.88715 -8.13058 H 1 RES   0.0000
3704 H 7.143 -1.86846 -0.573367 H 1 RES   0.0000
3705 H -8.94522 8.87288 -5.22516 H 1 RES   0.0000
3706 H 11.0857 -1.61818 5.86772 H 1 RES   0.0000
3707 H 7.17728 4.21718 8.55033 H 1 RES   0.0000
3708 H -1.52159 12.6095 -5.99117 H 1 RES   0.0000
3709 H 14.4326 -0.384367 -9.58266 H 1 RES   0.0000
3710 H 2.71404 -5.81075 -12.2061 H 1 RES   0.0000
3711 H -1.62561 -5.23127 3.69936 H 1 RES   0.0000
3712 H 10.3966 14.2737 -12.1636 H 1 RES   0.0000
3713 H 12.0353 14.4868 5.52954 H 1 RES   0.0000
3714 H 11.6156 3.24863 -11.9365 H 1 RES   0.0000
3715 H 6.02468 -4.6167 -13.9327 H 1 RES   0.0000
3716 H 2.37514 -13.3902 -2.92279 H 1 RES   0.0000
3717 H 5.23254 -14.3154 -8.28217 H 1 RES   0.0000
3718 H 10.0544 -10.8999 14.3962 H 1 RES   0.0000
3719 H -6.76046 8.20173 14.4261 H 1 RES   0.0000
3720 H 12.039 2.53586 -5.0249 H 1 RES   0.0000
3721 H -14.5542 12.8792 3.6272 H 1 RES   0.0000
3722 H -10.5232 -10.9809 -12.5442 H 1 RES   0.0000
3723 H 13.7792 14.3522 -1.1523 H 1 RES   0.0000
3724 H 11.1724 -12.4239 -7.71376 H 1 RES   0.0000
3725 H -14.3313 -11.843 4.2523 H 1 RES   0.0000
3726 H -4.25696 13.8799 -2.7268 H 1 RES   0.0000
3727 H 6.66118 4.83493 12.8317 H 1 RES   0.0000
3728 H 1.42636 -1.34851 -3.95728 H 1 RES   0.0000
3729 H -9.28182 3.26175 8.04302 H 1 RES   0.0000
3730 H 11.4011 3.51991 14.588 H 1 RES   0.0000
3731 H 6.09653 -5.22136 4.97234 H 1 RES   0.0000
3732 H 9.52007 12.7958 14.7955 H 1 RES   0.0000
3733 H 11.985 -1.64455 13.1104 H 1 RES   0.0000
3734 H -5.95149 -0.639876 -11.8268 H 1 RES   0.0000
3735 H 10.3524 -1.71897 11.3517 H 1 RES   0.0000
3736 H 10.9849 -0.0501743 -6.19317 H 1 RES   0.0000
3737 H -12.0843 -7.91499 11.8141 H 1 RES   0.0000
3738 H 3.51629 1.40435 13.5929 H 1 RES   0.0000
3739 H -8.4339 7.90587 -6.67452 H 1 RES   0.0000
3740 H -10.7184 11.9483 7.8168 H 1 RES   0.0000
3741 H 13.143 7.38132 13.5464 H 1 RES   0.0000
3742 H 4.08662 -6.97705 -2.1081 H 1 RES   0.0000
3743 H 7.91385 0.274952 14.7078 H 1 RES   0.0000
3744 H 3.36692 11.4444 -3.20563 H 1 RES   0.0000
3745 H 11.9315 11.5105 -5.46377 H 1 RES   0.0000
3746 H 9.08803 14.6311 9.56898 H 1 RES   0.0000
3747 H 9.80249 1.31399 -4.68587 H 1 RES   0.0000
3748 H 5.06314 -5.55985 -1.23573 H 1 RES   0.0000
3749 H -3.76732 10.5487 0.700384 H 1 RES   0.0000
3750 H -12.6553 4.68035 -10.1246 H 1 RES   0.0000
3751 H 8.84029 -0.858446 -11.8497 H 1 RES   0.0000
3752 H -8.91616 -7.18259 5.51169 H 1 RES   0.0000
3753 H 8.47222 11.5106 2.51585 H 1 RES   0.0000
3754 H -3.80382 -0.165971 -3.45414 H 1 RES   0.0000
3755 H -8.22868 -1.92014 -3.48642 H 1 RES   0.0000
3756 H 7.5664 1.13447 12.4621 H 1 RES   0.0000
3757 H -8.01764 1.73121 -5.69851 H 1 RES   0.0000
3758 H -9.5393 -4.4452 5.99706 H 1 RES   0.0000
3759 H -7.58056 7.57032 5.90477 H 1 RES   0.0000
3760 H -1.82986 14.0562 -8.89074 H 1 RES   0.0000
3761 H 9.72386 12.4504 5.68499 H 1 RES   0.0000
3762 H -7.758 -1.78598 1.53224 H 1 RES   0.0000
3763 H -13.6637 -7.40249 7.70452 H 1 RES   0.0000
3764 H 9.05127 0.530737 4.99927 H 1 RES   0.0000
3765 H -13.5821 0.310624 -10.4044 H 1 RES   0.0000
3766 H -0.949112 -10.2386 -11.0128 H 1 RES   0.0000
3767 H 11.0526 -5.57507 -0.669648 H 1 RES   0.0000
3768 H -8.11936 -7.65358 14.5141 H 1 RES   0.0000
3769 H -9.26306 -14.8264 12.5151 H 1 RES   0.0000
3770 H 13.752 -11.3227 -1.85562 H 1 RES   0.0000
3771 H -10.3823 -7.26494 10.217 H 1 RES   0.0000
3772 H -0.399706 -0.308968 -5.84915 H 1 RES   0.0000
3773 H -2.892 5.11181 -0.714596 H 1 RES   0.0000
3774 H -2.49614 -12.3557 -10.0681 H 1 RES   0.0000
3775 H -3.16983 3.15106 -12.086 H 1 RES   0.0000
3776 H 7.76593 -7.17951 -6.83466 H 1 RES   0.0000
3777 H -13.9048 -3.77949 -11.6093 H 1 RES   0.0000
3778 H 6.93884 4.71494 5.39515 H 1 RES   0.0000
3779 H 13.5759 9.0783 0.536823 H 1 RES   0.0000
3780 H -14.4073 -7.16974 4.5987 H 1 RES   0.0000
3781 H 1.33224 3.04788 3.10791 H 1 RES   0.0000
3782 H 10.5963 -10.7155 4.22427 H 1 RES   0.0000
3783 H 4.19079 3.19754 13.7779 H 1 RES   0.0000
3784 H -2.46424 -2.23074 -8.43634 H 1 RES   0.0000
3785 H -4.04679 -14.416 2.21213 H 1 RES   0.0000
3786 H -14.3115 12.4434 12.2236 H 1 RES   0.0000
3787 H 1.90827 14.1937 -12.9362 H 1 RES   0.0000
3788 H -11.693 5.53766 -5.62486 H 1 RES   0.0000
3789 H 10.0514 3.18032 -12.333 H 1 RES   0.0000
3790 H 0.827299 3.24676 2.05074 H 1 RES   0.0000
3791 H 14.7183 -1.62259 5.21624 H 1 RES   0.0000
3792 H 7.90937 -1.8027 -7.88892 H 1 RES   0.0000
3793 H 7.78505 12.2215 10.7534 H 1 RES   0.0000
3794 H 0.972712 -8.62818 -2.89123 H 1 RES   0.0000
3795 H -4.59849 4.85798 -11.6828 H 1 RES   0.0000
3796 H 9.16325 10.4616 14.201 H 1 RES   0.0000
3797 H 2.52266 7.76416 9.17807 H 1 RES   0.0000
3798 H 9.15072 -3.90034 -3.23663 H 1 RES   0.0000
3799 H 12.1065 4.67081 12.2173 H 1 RES   0.0000
3800 H 0.491521 -6.3044 7.056 H 1 RES   0.0000
3801 H -10.5381 11.1361 0.0267598 H 1 RES   0.0000
3802 H -11.7021 -3.50961 -11.6418 H 1 RES   0.0000
3803 H -0.280967 -10.6829 -5.78393 H 1 RES   0.0000
3804 H -10.6484 3.48323 12.3974 H 1 RES   0.0000
3805 H -10.5681 3.91371 -10.0535 H 1 RES   0.0000
3806 H -11.8851 -13.9145 2.26754 H 1 RES   0.0000
3807 H -7.0228 12.3845 -1.11084 H 1 RES   0.0000
3808 H 7.60311 -0.383029 -10.906 H 1 RES   0.0000
3809 H -9.52965 6.04592 -2.987 H 1 RES   0.0000
3810 H -11.0073 14.265 -0.346796 H 1 RES   0.0000
3811 H -1.68725 13.4359 -7.64111 H 1 RES   0.0000
3812 H 11.6939 1.80557 -12.2561 H 1 RES   0.0000
3813 H 12.3573 3.17934 13.8669 H 1 RES   0.0000
3814 H -0.101789 13.1849 -1.74525 H 1 RES   0.0000
3815 H -4.29279 12.6495 -0.441315 H 1 RES   0.0000
3816 H 12.202 2.99771 -2.31704 H 1 RES   0.0000
3817 H -7.76223 0.22967 13.5986 H 1 RES   0.0000
3818 H 1.77264 12.2365 -6.48049 H 1 RES   0.0000
3819 H -8.52863 1.27199 -8.0082 H 1 RES   0.0000
3820 H -3.60703 -9.27838 9.35631 H 1 RES   0.0000
3821 H 9.99459 13.921 14.0618 H 1 RES   0.0000
3822 H 6.76369 -3.23204 5.10088 H 1 RES   0.0000
3823 H -5.55711 2.46187 -14.2888 H 1 RES   0.0000
3824 H 1.28577 9.50543 -1.34021 H 1 RES   0.0000
3825 H -3.68861 0.566566 9.90076 H 1 RES   0.0000
3826 H -9.11736 6.67603 -12.4835 H 1 RES   0.0000
3827 H 3.99459 5.99128 12.9241 H 1 RES   0.0000
3828 H -10.0297 -10.4154 2.66206 H 1 RES   0.0000
3829 H -12.8612 -9.66086 8.38439 H 1 RES   0.0000
3830 H 0.632554 2.63639 -2.66379 H 1 RES   0.0000
3831 H 5.42139 -6.70227 11.7175 H 1 RES   0.0000
3832 H 14.397 14.7099 -8.1427 H 1 RES   0.0000
3833 H -11.3541 -1.28943 8.06009 H 1 RES   0.0000
3834 H 3.66692 -14.5198 13.6951 H 1 RES   0.0000
3835 H -12.3859 -4.24374 -6.65248 H 1 RES   0.0000
3836 H 0.586139 -7.10084 -0.777856 H 1 RES   0.0000
3837 H -11.9168 -9.40476 -9.68565 H 1 RES   0.0000
3838 H 9.53359 -3.07458 -2.38324 H 1 RES   0.0000
3839 H -3.21425 -11.1314 -2.76172 H 1 RES   0.0000
3840 H 13.6367 0.583138 -1.50945 H 1 RES   0.0000
3841 H 8.96221 -11.8732 -3.28178 H 1 RES   0.0000
3842 H 13.3405 14.0972 8.40314 H 1 RES   0.0000
3843 H 1.01232 12.1201 3.21233 H 1 RES   0.0000
3844 H -0.558797 3.78489 6.83067 H 1 RES   0.0000
3845 H -2.86314 13.9166 -8.48479 H 1 RES   0.0000
3846 H -14.1715 -6.76611 -7.0166 H 1 RES   0.0000
3847 H -4.23325 -12.0133 -4.64455 H 1 RES   0.0000
3848 H -11.7618 0.187122 1.11135 H 1 RES   0.0000
3849 H -5.62104 13.021 -7.93235 H 1 RES   0.0000
3850 H -14.7011 -14.3767 -13.5586 H 1 RES   0.0000
3851 H 5.65826 9.23358 -4.83598 H 1 RES   0.0000
3852 H 8.26079 7.08238 5.03405 H 1 RES   0.0000
3853 H 5.70295 1.25223 8.95393 H 1 RES   0.0000
3854 H -14.4614 6.94803 -5.21273 H 1 RES   0.0000
3855 H 11.8591 8.91862 -9.32784 H 1 RES   0.0000
3856 H -0.234041 12.4553 -6.98932 H 1 RES   0.0000
3857 H 12.7026 14.2369 -9.32663 H 1 RES   0.0000
3858 H 4.15992 13.0931 -14.3947 H 1 RES   0.0000
3859 H -14.6203 6.65229 1.02576 H 1 RES   0.0000
3860 H 8.52077 11.294 -6.20544 H 1 RES   0.0000
3861 H -9.12735 9.97696 11.8875 H 1 RES   0.0000
3862 H 13.3182 14.6993 11.2385 H 1 RES   0.0000
3863 H -4.584 -11.4576 -9.12424 H 1 RES   0.0000
3864 H -14.0002 11.2377 -3.47747 H 1 RES   0.0000
3865 H -8.5418 4.45468 4.63262 H 1 RES   0.0000
3866 H -13.5282 0.553209 -2.79531 H 1 RES   0.0000
3867 H -6.39028 13.9821 5.0007 H 1 RES   0.0000
3868 H -6.92392 -14.564 0.672776 H 1 RES   0.0000
3869 H 1.54908 -10.7483 -6.33022 H 1 RES   0.0000
3870 H 2.22336 -5.77197 0.333114 H 1 RES   0.0000
3871 H 10.8565 -4.01733 -8.8383 H 1 RES   0.0000
3872 H -10.4011 -1.4345 -13.5 H 1 RES   0.0000
3873 H 9.86476 -12.5174 -0.798006 H 1 RES   0.0000
3874 H -2.3706 1.16773 -6.57537 H 1 RES   0.0000
3875 H -6.92908 -13.322 0.591321 H 1 RES   0.0000
3876 H -2.67443 -11.0121 -6.17285 H 1 RES   0.0000
3877 H 3.98939 7.45454 2.53999 H 1 RES   0.0000
3878 H -5.78139 -1.56905 6.71313 H 1 RES   0.0000
3879 H -10.7894 -12.8428 -9.25933 H 1 RES   0.0000
3880 H 12.6138 -5.37442 -14.7346 H 1 RES   0.0000
3881 H 2.14961 -4.20976 4.01345 H 1 RES   0.0000
3882 H 5.83948 -8.71424 -8.18965 H 1 RES   0.0000
3883 H -6.67478 -5.13862 -1.12164 H 1 RES   0.0000
3884 H -3.72731 -10.9717 2.26673 H 1 RES   0.0000
3885 H -10.3866 -9.18348 -4.04032 H 1 RES   0.0000
3886 H 11.6834 1.04171 3.93951 H 1 RES   0.0000
3887 H -12.899 -4.6746 8.94474 H 1 RES   0.0000
3888 H 13.0309 11.9181 -10.6446 H 1 RES   0.0000
3889 H -9.57392 -5.82271 -6.65413 H 1 RES   0.0000
3890 H 12.8602 -10.9443 -0.980591 H 1 RES   0.0000
3891 H 4.17821 -13.5615 -12.1013 H 1 RES   0.0000
3892 H 1.70307 -12.8986 0.506415 H 1 RES   0.0000
3893 H 13.6848 -6.05876 9.32705 H 1 RES   0.0000
3894 H -3.4331 -11.667 13.0411 H 1 RES   0.0000
3895 H -12.1261 -9.01046 7.14668 H 1 RES   0.0000
3896 H 7.46352 14.5049 -6.97594 H 1 RES   0.0000
3897 H 2.76275 12.9892 -1.27547 H 1 RES   0.0000
3898 H -9.37728 -1.16939 1.7555 H 1 RES   0.0000
3899 H -0.391367 2.08531 14.2222 H 1 RES   0.0000
3900 H 11.2836 -5.05194 8.2676 H 1 RES   0.0000
3901 H 12.5984 -6.7388 -3.75306 H 1 RES   0.0000
3902 H 6.6002 -6.19827 -8.52382 H 1 RES   0.0000
3903 H 12.9161 -13.2246 14.2756 H 1 RES   0.0000
3904 H 4.92088 -5.21763 10.8153 H 1 RES   0.0000
3905 H 0.656107 0.166408 0.79294 H 1 RES   0.0000
3906 H 12.0668 6.59539 13.6385 H 1 RES   0.0000
3907 H -6.98452 -7.53004 -8.86405 H 1 RES   0.0000
3908 H 8.39457 -10.1674 -4.62195 H 1 RES   0.0000
3909 H -2.23983 -0.750467 0.476321 H 1 RES   0.0000
3910 H -14.0714 9.42707 -5.54939 H 1 RES   0.0000
3911 H 1.1166 4.8829 0.823475 H 1 RES   0.0000
3912 H -0.703793 -7.74811 -12.8823 H 1 RES   0.0000
3913 H -10.338 -2.93335 7.10443 H 1 RES   0.0000
3914 H -12.488 3.20554 11.0571 H 1 RES   0.0000
3915 H -5.80409 6.58225 -10.1006 H 1 RES   0.0000
3916 H -2.17974 -14.7888 -3.94747 H 1 RES   0.0000
3917 H 2.99939 -9.12533 9.32547 H 1 RES   0.0000
3918 H -5.20258 14.1353 -11.6707 H 1 RES   0.0000
3919 H 6.93153 -0.344712 -13.2144 H 1 RES   0.0000
3920 H 13.841 10.0578 -3.408 H 1 RES   0.0000
3921 H -12.3707 -2.46725 -6.08989 H 1 RES   0.0000
3922 H -0.692599 -2.48706 5.71368 H 1 RES   0.0000
3923 H 14.33 8.29358 1.041 H 1 RES   0.0000
3924 H 13.7797 2.1815 7.31002 H 1 RES   0.0000
3925 H -10.641 -7.07704 -0.665893 H 1 RES   0.0000
3926 H -12.5694 -0.0689462 8.66477 H 1 RES   0.0000
3927 H -5.07037 -0.526707 -10.9972 H 1 RES   0.0000
3928 H 11.8365 3.82204 3.62723 H 1 RES   0.0000
3929 H -14.0481 5.57617 14.8006 H 1 RES   0.0000
3930 H -1.26871 6.60302 10.3694 H 1 RES   0.0000
3931 H 9.84331 8.95358 -14.3907 H 1 RES   0.0000
3932 H -12.6751 -7.13414 -7.61674 H 1 RES   0.0000
3933 H 10.2192 11.9922 -11.425 H 1 RES   0.0000
3934 H 4.09457 -10.4603 9.25667 H 1 RES   0.0000
3935 H -9.06272 2.49504 6.2395 H 1 RES   0.0000
3936 H -13.0042 -13.2352 -0.50271 H 1 RES   0.0000
3937 H 14.8081 13.0784 -4.98494 H 1 RES   0.0000
3938 H 7.26711 -1.5267 1.29618 H 1 RES   0.0000
3939 H 10.9322 -3.12306 -14.1047 H 1 RES   0.0000
3940 H -1.57642 8.84251 5.8145 H 1 RES   0.0000
3941 H 5.32976 -8.78386 -9.63175 H 1 RES   0.0000
3942 H -8.2676 13.9674 0.817789 H 1 RES   0.0000
3943 H 5.45419 -13.7553 -4.44791 H 1 RES   0.0000
3944 H 5.96755 -5.48925 -10.3019 H 1 RES   0.0000
3945 H 9.17403 12.2167 -10.5728 H 1 RES   0.0000
3946 H -8.40516 14.6699 -0.623539 H 1 RES   0.0000
3947 H 7.64813 -5.39343 -13.96 H 1 RES   0.0000
3948 H -11.7464 -0.799174 3.26611 H 1 RES   0.0000
3949 H -0.196167 12.9182 -8.21428 H 1 RES   0.0000
3950 H 10.0175 10.9481 -2.75349 H 1 RES   0.0000
3951 H 10.1252 5.31083 -13.3111 H 1 RES   0.0000
3952 H 13.1145 11.6805 10.5789 H 1 RES   0.0000
3953 H -14.2596 10.224 -10.216 H 1 RES   0.0000
3954 H -4.22075 14.4035 -7.95786 H 1 RES   0.0000
3955 H 12.1281 12.2737 -6.22379 H 1 RES   0.0000
3956 H -8.0481 4.26406 8.62404 H 1 RES   0.0000
3957 H 12.4445 11.5182 4.1893 H 1 RES   0.0000
3958 H 8.61458 2.17304 -10.5174 H 1 RES   0.0000
3959 H 1.61208 -7.51533 10.6531 H 1 RES   0.0000
3960 H -11.0972 -1.22242 10.6789 H 1 RES   0.0000
3961 H -14.6269 11.5177 -6.8671 H 1 RES   0.0000
3962 H -4.78253 -0.67263 -13.4161 H 1 RES   0.0000
3963 H 9.6443 -14.2331 -6.80208 H 1 RES   0.0000
3964 H -9.04228 1.01744 -2.06195 H 1 RES   0.0000
3965 H 7.72919 -11.7114 -3.42511 H 1 RES   0.0000
3966 H 10.3795 -9.18185 13.6215 H 1 RES   0.0000
3967 H 6.44379 -11.7302 -3.07733 H 1 RES   0.0000
3968 H -0.158969 -3.07382 9.23926 H 1 RES   0.0000
3969 H 3.23301 3.31325 2.35531 H 1 RES   0.0000
3970 H -0.676871 -14.4024 -6.56749 H 1 RES   0.0000
3971 H -11.0275 7.54719 0.438804 H 1 RES   0.0000
3972 H 6.61352 -12.7896 2.78117 H 1 RES   0.0000
3973 H 12.3076 -0.585776 -2.99631 H 1 RES   0.0000
3974 H 10.5987 12.0997 -13.7687 H 1 RES   0.0000
3975 H -12.6439 -6.70973 -0.36179 H 1 RES   0.0000
3976 H 4.6442 1.95284 7.30621 H 1 RES   0.0000
3977 H -12.5794 -9.51512 -3.15393 H 1 RES   0.0000
3978 H 7.35862 7.44541 12.1579 H 1 RES   0.0000
3979 H -13.7911 -9.74984 12.7109 H 1 RES   0.0000
3980 H -7.32985 12.4472 13.4162 H 1 RES   0.0000
3981 H 9.29638 1.49644 8.52961 H 1 RES   0.0000
3982 H -9.56328 -0.813112 4.04705 H 1 RES   0.0000
3983 H -1.0094 -2.17071 0.967795 H 1 RES   0.0000
3984 H 5.63206 8.8874 4.81483 H 1 RES   0.0000
3985 H -13.5886 12.652 13.6809 H 1 RES   0.0000
3986 H 12.1033 3.66724 11.6622 H 1 RES   0.0000
3987 H 0.935134 14.3363 2.70076 H 1 RES   0.0000
3988 H 5.47947 -1.90409 6.97483 H 1 RES   0.0000
3989 H -14.6713 6.55744 -13.2597 H 1 RES   0.0000
3990 H 1.46987 -11.3724 -7.16907 H 1 RES   0.0000
3991 H -0.866361 5.19187 -7.47841 H 1 RES   0.0000
3992 H 1.07305 -7.90302 -10.9362 H 1 RES   0.0000
3993 H 4.36721 3.89813 -13.5455 H 1 RES   0.0000
3994 H -14.2641 3.76611 -0.411302 H 1 RES   0.0000
3995 H 10.4445 1.29705 11.0312 H 1 RES   0.0000
3996 H -7.9781 14.032 2.17537 H 1 RES   0.0000
3997 H -3.94494 -0.757146 3.62222 H 1 RES   0.0000
3998 H 3.61166 -5.29829 -0.501929 H 1 RES   0.0000
3999 H 2.44884 7.98932 6.11412 H 1 RES   0.0000
4000 H -9.92292 6.77073 2.69659 H 1 RES   0.0000
4001 H -3.57907 0.991559 -13.9294 H 1 RES   0.0000
4002 H 14.4399 0.0427609 2.72921 H 1 RES   0.0000
4003 H 2.09948 9.45912 12.8858 H 1 RES   0.0000
4004 H -8.03484 3.41657 -13.5382 H 1 RES   0.0000
4005 H -12.3042 -8.37069 8.97531 H 1 RES   0.0000
4006 H 5.57606 8.21297 1.53225 H 1 RES   0.0000
4007 H -12.757 4.40139 -13.0886 H 1 RES   0.0000
4008 H 4.73871 -14.6226 6.52436 H 1 RES   0.0000
4009 H 6.84316 -10.3082 -1.1063 H 1 RES   0.0000
4010 H 11.9069 0.303701 -2.21065 H 1 RES   0.0000
4011 H -2.07939 -12.8206 -4.92677 H 1 RES   0.0000
4012 H -11.1034 -10.0096 6.5603 H 1 RES   0.0000
4013 H -11.4066 -12.5812 7.89156 H 1 RES   0.0000
4014 H -1.87858 -3.85906 10.4823 H 1 RES   0.0000
4015 H 11.518 13.2328 -14.6207 H 1 RES   0.0000
4016 H -2.45505 11.4834 -13.4643 H 1 RES   0.0000
4017 H -2.29833 -5.15681 -11.0784 H 1 RES   0.0000
4018 H -4.94751 -10.7814 -14.7747 H 1 RES   0.0000
4019 H -14.7715 -2.9057 4.9208 H 1 RES   0.0000
4020 H -0.698715 -6.22564 14.1447 H 1 RES   0.0000
4021 H -14.5304 1.87094 -3.77835 H 1 RES   0.0000
4022 H -7.78487 -5.45951 0.575351 H 1 RES   0.0000
4023 H -14.143 11.0259 3.75557 H 1 RES   0.0000
4024 H 7.92391 7.38748 -10.5699 H 1 RES   0.0000
4025 H -8.19297 8.98459 -2.71719 H 1 RES   0.0000
4026 H -1.21772 -13.9787 0.334892 H 1 RES   0.0000
4027 H -0.143907 -9.43963 -6.71584 H 1 RES   0.0000
4028 H -10.4308 -10.9816 4.66132 H 1 RES   0.0000
4029 H 11.7008 -5.09342 5.06336 H 1 RES   0.0000
4030 H -5.54533 1.42152 10.7137 H 1 RES   0.0000
4031 H 4.87562 -5.31481 -5.88093 H 1 RES   0.0000
4032 H -13.9816 11.5265 -13.5152 H 1 RES   0.0000
4033 H -0.692158 -11.5389 -1.19904 H 1 RES   0.0000
4034 H -8.27258 -3.08029 9.02886 H 1 RES   0.0000
4035 H -5.3958 11.0221 -0.319389 H 1 RES   0.0000
4036 H -0.886313 -10.7086 13.3705 H 1 RES   0.0000
4037 H -13.5048 2.57793 2.88169 H 1 RES   0.0000
4038 H 3.0583 -13.4585 2.83678 H 1 RES   0.0000
4039 H -9.81882 -8.55896 10.114 H 1 RES   0.0000
4040 H -6.51307 2.00866 -1.60894 H 1 RES   0.0000
4041 H 13.2688 -1.95675 -11.389 H 1 RES   0.0000
4042 H 0.897469 3.43068 -11.7411 H 1 RES   0.0000
4043 H 12.5415 -5.5477 -10.9424 H 1 RES   0.0000
4044 H -11.5894 12.2607 10.6238 H 1 RES   0.0000
4045 H -0.102625 7.29497 -5.64677 H 1 RES   0.0000
4046 H -2.26972 -4.28992 -5.37364 H 1 RES   0.0000
4047 H 3.28805 -6.64658 -11.8718 H 1 RES   0.0000
4048 H 14.1917 8.07761 7.39542 H 1 RES   0.0000
4049 H -5.31945 -9.67052 -10.4561 H 1 RES   0.0000
4050 H -6.77924 12.2296 -10.8169 H 1 RES   0.0000
4051 H -1.09696 -11.4784 3.67944 H 1 RES   0.0000
4052 H 6.8031 -0.964142 -14.3401 H 1 RES   0.0000
4053 H -12.9615 1.02499 0.386622 H 1 RES   0.0000
4054 H -0.427309 -7.66068 -5.61682 H 1 RES   0.0000
4055 H -1.73134 -8.44751 13.7705 H 1 RES   0.0000
4056 H -6.65912 12.9241 11.2389 H 1 RES   0.0000
4057 H 8.64191 12.4392 -6.37852 H 1 RES   0.0000
4058 H -12.6734 12.2611 -8.50573 H 1 RES   0.0000
4059 H 10.1857 -4.23948 10.6324 H 1 RES   0.0000
4060 H -14.4805 1.10407 -9.23541 H 1 RES   0.0000
4061 H -5.13207 -5.03857 -11.4875 H 1 RES   0.0000
4062 H 10.9405 -3.47858 -9.9416 H 1 RES   0.0000
4063 H -7.9867 -9.61496 8.69976 H 1 RES   0.0000
4064 H -9.94614 11.5966 4.22311 H 1 RES   0.0000
4065 H 14.6612 8.68634 -12.3729 H 1 RES   0.0000
4066 H 6.01266 -7.87802 13.0491 H 1 RES   0.0000
4067 H 10.447 7.98608 1.9607 H 1 RES   0.0000
4068 H -9.84302 13.8198 3.39385 H 1 RES   0.0000
4069 H -1.61713 10.328 -10.5181 H 1 RES   0.0000
4070 H 12.8388 -8.82913 12.1875 H 1 RES   0.0000
4071 H -4.62806 4.9682 -13.1933 H 1 RES   0.0000
4072 H -5.71821 11.8176 1.9558 H 1 RES   0.0000
4073 H 0.434201 -14.3457 14.8139 H 1 RES   0.0000
4074 H -6.90431 5.5381 -12.1402 H 1 RES   0.0000
4075 H -10.532 8.667 -12.7311 H 1 RES   0.0000
4076 H -12.5014 7.89011 -6.2902 H 1 RES   0.0000
4077 H -9.18729 -7.88351 -12.6819 H 1 RES   0.0000
4078 H 13.6294 -11.2904 -6.46942 H 1 RES   0.0000
4079 H -6.53162 0.44795 1.44504 H 1 RES   0.0000
4080 H 10.9959 6.7696 6.82299 H 1 RES   0.0000
4081 H -9.21201 1.02987 -10.5161 H 1 RES   0.0000
4082 H 12.1241 -0.240002 -12.6265 H 1 RES   0.0000
4083 H -11.5224 3.48948 14.7967 H 1 RES   0.0000
4084 H 7.14025 9.58147 10.5814 H 1 RES   0.0000
4085 H 2.70172 -4.39638 -8.95065 H 1 RES   0.0000
4086 H 6.97385 -10.8341 6.65907 H 1 RES   0.0000
4087 H 9.48527 -6.30185 -3.86379 H 1 RES   0.0000
4088 H 8.50888 -6.09065 -3.69525 H 1 RES   0.0000
4089 H 5.39739 -12.1441 9.10348 H 1 RES   0.0000
4090 H -3.16004 11.7531 -8.48532 H 1 RES   0.0000
4091 H 1.99666 -0.429576 10.1053 H 1 RES   0.0000
4092 H -6.00098 9.21144 3.59293 H 1 RES   0.0000
4093 H 1.66342 8.12013 -3.57725 H 1 RES   0.0000
4094 H 10.1888 -6.45059 2.0495 H 1 RES   0.0000
4095 H -3.95515 -7.76501 -13.9057 H 1 RES   0.0000
4096 H -14.1461 2.42488 12.0727 H 1 RES   0.0000
4097 H -3.0443 -6.64314 -11.3334 H 1 RES   0.0000
4098 H 4.55906 -10.0711 0.704167 H 1 RES   0.0000
4099 H -1.69282 -13.0955 3.53372 H 1 RES   0.0000
4100 H -14.3804 -1.22842 14.5663 H 1 RES   0.0000
4101 H -6.49001 -14.0064 10.0637 H 1 RES   0.0000
4102 H -3.11205 -2.67324 -3.20022 H 1 RES   0.0000
4103 H -6.69147 3.53693 -1.23462 H 1 RES   0.0000
4104 H -0.724758 -0.998413 5.24202 H 1 RES   0.0000
4105 H -1.83366 12.2263 -2.79873 H 1 RES   0.0000
4106 H -2.16867 4.21448 7.96698 H 1 RES   0.0000
4107 H -10.062 3.97386 7.97415 H 1 RES   0.0000
4108 H -8.08656 1.42517 -6.9096 H 1 RES   0.0000
4109 H -6.32504 12.8209 -4.23953 H 1 RES   0.0000
4110 H -9.32557 -10.9656 3.47214 H 1 RES   0.0000
4111 H 7.08351 2.71007 -11.7995 H 1 RES   0.0000
4112 H 2.16397 2.56594 8.92351 H 1 RES   0.0000
4113 H 2.63774 -1.95199 5.45633 H 1 RES   0.0000
4114 H 1.24096 -10.0907 12.2716 H 1 RES   0.0000
4115 H 8.75079 -14.0672 -12.7685 H 1 RES   0.0000
4116 H -12.6546 -5.41533 -12.0238 H 1 RES   0.0000
4117 H 0.873448 6.10699 5.46292 H 1 RES   0.0000
4118 H 6.12031 -12.6306 -2.15512 H 1 RES   0.0000
4119 H -9.56915 13.3083 -10.9764 H 1 RES   0.0000
4120 H -13.4153 10.6411 -2.01964 H 1 RES   0.0000
4121 H -3.14705 -6.9688 -10.2265 H 1 RES   0.0000
4122 H 8.9406 -6.40208 -2.60438 H 1 RES   0.0000
4123 H 12.17 -13.7038 -7.8616 H 1 RES   0.0000
4124 H -8.11473 -9.79724 -13.5319 H 1 RES   0.0000
4125 H -6.01208 -1.66154 0.751715 H 1 RES   0.0000
4126 H -6.83659 9.65313 -3.10046 H 1 RES   0.0000
4127 H 12.5395 7.25637 -1.75262 H 1 RES   0.0000
4128 H -10.3161 -5.23543 -7.53567 H 1 RES   0.0000
4129 H 4.13147 14.5365 -3.90858 H 1 RES   0.0000
4130 H -11.5394 2.9097 -11.8428 H 1 RES   0.0000
4131 H -3.09922 -12.3157 -4.50771 H 1 RES   0.0000
4132 H 2.21574 -3.87463 -4.01225 H 1 RES   0.0000
4133 H -13.0329 -6.29144 1.67634 H 1 RES   0.0000
4134 H -14.5726 -12.0619 -9.81935 H 1 RES   0.0000
4135 H -3.52508 -4.33065 -4.31958 H 1 RES   0.0000
4136 H -2.45753 -2.04835 -1.3856 H 1 RES   0.0000
4137 H -5.00302 9.22173 -10.1121 H 1 RES   0.0000
4138 H -7.89148 -3.04295 -3.98636 H 1 RES   0.0000
4139 H -3.74322 0.91538 14.0849 H 1 RES   0.0000
4140 H 14.7663 0.0689997 -7.86109 H 1 RES   0.0000
4141 H 8.95195 -9.78673 -13.6788 H 1 RES   0.0000
4142 H 12.2125 14.5704 -6.03871 H 1 RES   0.0000
4143 H 7.07768 -3.67943 1.02782 H 1 RES   0.0000
4144 H 11.164 -4.50675 1.68124 H 1 RES   0.0000
4145 H -5.56219 -13.375 0.323189 H 1 RES   0.0000
4146 H -5.84201 -12.0376 7.22728 H 1 RES   0.0000
4147 H -1.68665 12.9784 11.3801 H 1 RES   0.0000
4148 H -14.5572 -4.76858 -1.01932 H 1 RES   0.0000
4149 H 8.88032 2.20215 12.3432 H 1 RES   0.0000
4150 H 4.79119 -13.342 3.69392 H 1 RES   0.0000
4151 H 8.53652 -2.45915 -3.68627 H 1 RES   0.0000
4152 H -12.105 -7.62998 -4.22232 H 1 RES   0.0000
4153 H 4.16857 -14.5119 -7.92919 H 1 RES   0.0000
4154 H 3.87226 -7.62955 -8.96828 H 1 RES   0.0000
4155 H -5.01893 3.52713 11.2095 H 1 RES   0.0000
4156 H -1.85109 10.888 -5.10733 H 1 RES   0.0000
4157 H 9.41391 6.52649 -9.84038 H 1 RES   0.0000
4158 H 6.35656 8.63349 -11.0397 H 1 RES   0.0000
4159 H 4.88003 10.7964 -3.51594 H 1 RES   0.0000
4160 H 6.13653 12.0948 -9.14348 H 1 RES   0.0000
4161 H -11.8828 -4.41548 1.3265 H 1 RES   0.0000
4162 H 13.4533 1.75618 -7.82326 H 1 RES   0.0000
4163 H 7.23224 -13.4638 -5.79805 H 1 RES   0.0000
4164 H 11.8879 -5.78337 1.01857 H 1 RES   0.0000
4165 H -4.4397 6.29964 4.05941 H 1 RES   0.0000
4166 H 1.59736 2.6932 -11.3509 H 1 RES   0.0000
4167 H -4.37486 0.937246 2.99444 H 1 RES   0.0000
4168 H -12.8096 8.52172 -10.5237 H 1 RES   0.0000
4169 H -9.70262 2.27469 10.7672 H 1 RES   0.0000
4170 H -7.90233 6.32176 13.0644 H 1 RES   0.0000
4171 H -1.15432 -13.9255 -1.56587 H 1 RES   0.0000
4172 H -12.0862 1.06641 2.43682 H 1 RES   0.0000
4173 H 3.2392 3.36541 12.1247 H 1 RES   0.0000
4174 H -2.62697 12.124 12.8294 H 1 RES   0.0000
4175 H 1.5217 -4.87452 -2.94344 H 1 RES   0.0000
4176 H -12.3511 12.8703 0.484372 H 1 RES   0.0000
4177 H 9.88481 2.30575 3.80219 H 1 RES   0.0000
4178 H -4.75822 13.6919 8.45938 H 1 RES   0.0000
4179 H 0.0541275 -3.0713 -6.43881 H 1 RES   0.0000
4180 H -12.1094 -4.21201 -9.98363 H 1 RES   0.0000
4181 H 4.38492 11.8846 1.17479 H 1 RES   0.0000
4182 H 0.114707 -3.21738 -3.41993 H 1 RES   0.0000
4183 H -14.5336 -7.58491 9.69712 H 1 RES   0.0000
4184 H 10.8447 -9.66878 -0.623704 H 1 RES   0.0000
4185 H -1.51411 12.331 14.1128 H 1 RES   0.0000
4186 H 11.7913 -7.477 -0.502986 H 1 RES   0.0000
4187 H 1.61267 -6.69411 -0.796037 H 1 RES   0.0000
4188 H -14.5848 -10.0838 1.31976 H 1 RES   0.0000
4189 H -1.40048 -6.5523 -5.82421 H 1 RES   0.0000
4190 H -13.6877 -13.2512 -7.11729 H 1 RES   0.0000
4191 H -8.50069 11.8437 3.21454 H 1 RES   0.0000
4192 H -11.665 11.9823 0.753613 H 1 RES   0.0000
4193 H 13.3428 3.69815 -1.27095 H 1 RES   0.0000
4194 H 11.7887 10.4899 7.79829 H 1 RES   0.0000
4195 H 2.0225 2.01414 6.21093 H 1 RES   0.0000
4196 H -11.4466 6.77521 -7.83543 H 1 RES   0.0000
4197 H -5.96552 4.04173 13.4453 H 1 RES   0.0000
4198 H 9.11448 -5.41463 -3.24155 H 1 RES   0.0000
4199 H -6.3981 2.16649 1.5806 H 1 RES   0.0000
4200 H 7.70337 6.76819 -12.6327 H 1 RES   0.0000
4201 H 4.33815 2.14084 5.82471 H 1 RES   0.0000
4202 H -3.0108 -5.62678 -7.57293 H 1 RES   0.0000
4203 H -5.30684 10.3553 -7.2823 H 1 RES   0.0000
4204 H -12.333 -5.14649 2.24821 H 1 RES   0.0000
4205 H 5.05674 -5.19014 5.14182 H 1 RES   0.0000
4206 H 11.0186 13.1428 -7.17867 H 1 RES   0.0000
4207 H -10.9726 -3.07757 -8.65904 H 1 RES   0.0000
4208 H 8.12662 13.2238 11.239 H 1 RES   0.0000
4209 H 2.39458 -10.6608 4.61668 H 1 RES   0.0000
4210 H 14.4691 14.0902 -10.7674 H 1 RES   0.0000
4211 H 0.146664 2.76701 13.6626 H 1 RES   0.0000
4212 H -2.5773 -1.60053 -4.93915 H 1 RES   0.0000
4213 H -4.5234 13.267 13.4792 H 1 RES   0.0000
4214 H 12.2486 11.2627 1.36986 H 1 RES   0.0000
4215 H -10.8426 -7.72061 -11.7059 H 1 RES   0.0000
4216 H -3.74614 3.24287 -0.140283 H 1 RES   0.0000
4217 H 4.47866 2.74439 -11.8963 H 1 RES   0.0000
4218 H 8.65065 -8.50217 9.10587 H 1 RES   0.0000
4219 H 0.911714 -7.35265 -7.73883 H 1 RES   0.0000
4220 H -0.262077 -2.80007 10.2785 H 1 RES   0.0000
4221 H -5.38969 -1.34002 2.28053 H 1 RES   0.0000
4222 H 12.0911 14.3507 -1.29977 H 1 RES   0.0000
4223 H 10.2391 4.32145 -6.67011 H 1 RES   0.0000
4224 H -13.1055 2.74686 13.1161 H 1 RES   0.0000
4225 H -4.44323 -1.41908 -5.00841 H 1 RES   0.0000
4226 H -9.83944 -3.47429 5.87068 H 1 RES   0.0000
4227 H 3.83314 -1.83446 5.63585 H 1 RES   0.0000
4228 H -7.93657 -6.95679 -14.2757 H 1 RES   0.0000
4229 H -5.89813 4.09266 -1.59853 H 1 RES   0.0000
4230 H -9.11543 -2.30437 9.6699 H 1 RES   0.0000
4231 H -14.7484 5.3728 11.4581 H 1 RES   0.0000
4232 H -3.5786 -2.22613 10.4591 H 1 RES   0.0000
4233 H 10.5711 -6.38639 -6.12621 H 1 RES   0.0000
4234 H 0.67404 9.54769 9.74522 H 1 RES   0.0000
4235 H 4.7836 0.859492 7.42073 H 1 RES   0.0000
4236 H 10.1633 2.08071 -7.23433 H 1 RES   0.0000
4237 H -1.40788 8.74732 7.13505 H 1 RES   0.0000
4238 H 5.14065 -0.0443555 0.74477 H 1 RES   0.0000
4239 H -0.230331 -12.5358 0.733642 H 1 RES   0.0000
4240 H -6.47076 11.1938 -0.454986 H 1 RES   0.0000
4241 H 8.66482 -13.3024 2.8563 H 1 RES   0.0000
4242 H -9.20529 -11.6939 14.7214 H 1 RES   0.0000
4243 H -4.13995 11.6386 4.63267 H 1 RES   0.0000
4244 H 7.65119 12.4054 12.3098 H 1 RES   0.0000
4245 H 0.923118 12.8182 -11.0784 H 1 RES   0.0000
4246 H -12.4825 9.94969 -2.85437 H 1 RES   0.0000
4247 H 3.8188 4.46174 3.42366 H 1 RES   0.0000
4248 H -4.66552 9.31158 5.4863 H 1 RES   0.0000
4249 H 3.85865 5.27446 1.2125 H 1 RES   0.0000
4250 H -3.41402 -11.1534 -13.2709 H 1 RES   0.0000
4251 H 7.58055 -2.54625 -5.91282 H 1 RES   0.0000
4252 H 10.8348 2.61961 -12.5867 H 1 RES   0.0000
4253 H 0.382079 10.8021 -10.8611 H 1 RES   0.0000
4254 H -14.689 14.6304 -2.75606 H 1 RES   0.0000
4255 H -2.32141 10.4089 -14.5376 H 1 RES   0.0000
4256 H 4.3802 -11.8106 8.21026 H 1 RES   0.0000
4257 H 3.23682 -7.47398 -3.79229 H 1 RES   0.0000
4258 H -5.00983 14.5519 10.6733 H 1 RES   0.0000
4259 H -4.70838 -3.3345 2.09938 H 1 RES   0.0000
4260 H -10.8159 -1.47603 14.4704 H 1 RES   0.0000
4261 H -0.657236 12.9914 6.93259 H 1 RES   0.0000
4262 H 14.1155 -13.0709 11.6014 H 1 RES   0.0000
4263 H -9.34778 14.1127 -10.4241 H 1 RES   0.0000
4264 H -0.764968 -12.7383 13.6071 H 1 RES   0.0000
4265 H 2.01737 10.8391 -14.1828 H 1 RES   0.0000
4266 H 5.87576 -7.62774 -7.61476 H 1 RES   0.0000
4267 H 7.95435 -0.325919 -2.10284 H 1 RES   0.0000
4268 H -12.8779 -8.19897 2.17804 H 1 RES   0.0000
4269 H 5.55099 1.3014 -3.30941 H 1 RES   0.0000
4270 H 12.5639 3.90476 -6.22983 H 1 RES   0.0000
4271 H 8.0809 2.97198 9.32297 H 1 RES   0.0000
4272 H 1.5127 13.2338 -12.7767 H 1 RES   0.0000
4273 H 5.36552 11.8929 -1.77596 H 1 RES   0.0000
4274 H 3.44164 -11.1308 -12.9995 H 1 RES   0.0000
4275 H -7.42572 -5.84838 -6.20045 H 1 RES   0.0000
4276 H -1.85655 11.647 -8.7998 H 1 RES   0.0000
4277 H 13.6876 -10.6511 -8.39782 H 1 RES   0.0000
4278 H 8.1948 5.63171 -13.449 H 1 RES   0.0000
4279 H 3.70502 5.34555 -12.6983 H 1 RES   0.0000
4280 H 1.13442 -13.1982 6.39252 H 1 RES   0.0000
4281 H 7.01852 -6.23004 -10.7257 H 1 RES   0.0000
4282 H -10.4905 12.1197 -12.7647 H 1 RES   0.0000
4283 H 5.48514 -2.22951 -10.7813 H 1 RES   0.0000
4284 H 8.23904 13.3225 -4.64613 H 1 RES   0.0000
4285 H -12.4303 -10.8381 3.38339 H 1 RES   0.0000
4286 H -7.13457 10.5952 13.6711 H 1 RES   0.0000
4287 H 5.1484 11.5067 -9.93567 H 1 RES   0.0000
4288 H -8.09816 -3.64997 -11.9206 H 1 RES   0.0000
4289 H -10.3487 -0.520057 -4.55149 H 1 RES   0.0000
4290 H 6.37794 -12.2087 10.8477 H 1 RES   0.0000
4291 H 13.2698 5.26826 6.44649 H 1 RES   0.0000
4292 H -9.4466 6.63866 -2.04497 H 1 RES   0.0000
4293 H -11.7212 -9.41988 -0.228477 H 1 RES   0.0000
4294 H -7.46092 13.3396 10.0184 H 1 RES   0.0000
4295 H -8.01201 -5.0355 -0.413708 H 1 RES   0.0000
4296 H -0.898944 2.84193 8.0068 H 1 RES   0.0000
4297 H 1.63106 13.167 -5.26139 H 1 RES   0.0000
4298 H 12.0757 2.10595 9.52188 H 1 RES   0.0000
4299 H 10.6436 6.94336 13.9775 H 1 RES   0.0000
4300 H 1.23982 -0.995931 7.45262 H 1 RES   0.0000
4301 H -8.85567 6.40638 9.21027 H 1 RES   0.0000
4302 H -5.12123 0.481961 8.50096 H 1 RES   0.0000
4303 H 0.116953 12.3557 13.7628 H 1 RES   0.0000
4304 H 10.6143 9.74956 11.4084 H 1 RES   0.0000
4305 H 5.63868 2.04491 -14.5712 H 1 RES   0.0000
4306 H -14.1823 -9.22477 -8.61783 H 1 RES   0.0000
4307 H -2.33126 8.79017 -0.169346 H 1 RES   0.0000
4308 H -9.19703 -8.16403 13.7363 H 1 RES   0.0000
4309 H -10.6411 14.6614 13.6261 H 1 RES   0.0000
4310 H -10.647 6.78489 1.65287 H 1 RES   0.0000
4311 H -5.04772 8.55572 12.413 H 1 RES   0.0000
4312 H -10.8913 -3.88562 1.63141 H 1 RES   0.0000
4313 H -3.21308 5.26514 10.8862 H 1 RES   0.0000
4314 H -13.5871 9.11207 -7.60736 H 1 RES   0.0000
4315 H -10.9219 14.6934 -3.76702 H 1 RES   0.0000
4316 H -14.3856 4.84802 -1.11916 H 1 RES   0.0000
4317 H 11.2849 5.73709 -14.6279 H 1 RES   0.0000
4318 H 11.1237 5.42051 5.19244 H 1 RES   0.0000
4319 H 1.14336 12.7203 10.6017 H 1 RES   0.0000
4320 H -10.905 -5.27069 -13.2508 H 1 RES   0.0000
4321 H -11.5437 6.21881 6.31897 H 1 RES   0.0000
4322 H 3.02009 4.16383 -1.95724 H 1 RES   0.0000
4323 H -1.74847 -9.82666 -3.69091 H 1 RES   0.0000
4324 H -2.29829 -11.6091 13.4902 H 1 RES   0.0000
4325 H 13.2809 -13.4987 -6.97575 H 1 RES   0.0000
4326 H 4.11175 9.02657 9.02104 H 1 RES   0.0000
4327 H -10.4194 7.06673 13.9401 H 1 RES   0.0000
4328 H 3.67436 -5.32012 -1.98314 H 1 RES   0.0000
4329 H -3.58862 7.36667 13.6905 H 1 RES   0.0000
4330 H 13.3454 -5.29292 11.3662 H 1 RES   0.0000
4331 H -9.67551 8.05437 4.18325 H 1 RES   0.0000
4332 H -6.74382 -5.18052 0.0112712 H 1 RES   0.0000
4333 H 4.55458 1.63338 -1.17646 H 1 RES   0.0000
4334 H -9.9519 -5.0784 -5.50589 H 1 RES   0.0000
4335 H 8.71468 -10.0503 13.9041 H 1 RES   0.0000
4336 H -8.73574 -3.93266 -2.71343 H 1 RES   0.0000
4337 H -0.308497 1.66247 -5.45963 H 1 RES   0.0000
4338 H -9.93385 -2.72702 -6.70602 H 1 RES   0.0000
4339 H -9.98732 -1.11447 -3.31956 H 1 RES   0.0000
4340 H -6.29428 4.63903 -11.7642 H 1 RES   0.0000
4341 H -14.1356 9.3102 -12.5804 H 1 RES   0.0000
4342 H 6.41341 -11.5376 -1.25963 H 1 RES   0.0000
4343 H 1.68319 -6.72516 13.7104 H 1 RES   0.0000
4344 H 10.2955 -5.83559 -13.7412 H 1 RES   0.0000
4345 H 5.90311 -10.8847 -9.988 H 1 RES   0.0000
4346 H 5.21174 14.5592 -3.65332 H 1 RES   0.0000
4347 H 13.7377 7.35282 -0.976588 H 1 RES   0.0000
4348 H 10.9434 -9.00622 -5.91954 H 1 RES   0.0000
4349 H 4.7011 -10.7677 -8.86127 H 1 RES   0.0000
4350 H -13.2107 0.674796 -9.49015 H 1 RES   0.0000
4351 H -4.10207 1.48728 -8.50248 H 1 RES   0.0000
4352 H -10.2296 8.80191 -11.6527 H 1 RES   0.0000
4353 H -0.594903 -6.98724 10.3443 H 1 RES   0.0000
4354 H 6.00627 5.7373 9.95197 H 1 RES   0.0000
4355 H -2.60678 2.97054 -3.74158 H 1 RES   0.0000
4356 H 0.87372 -5.97463 -12.0989 H 1 RES   0.0000
4357 H -1.84786 6.07418 -11.9991 H 1 RES   0.0000
4358 H 8.90015 13.6346 -5.65661 H 1 RES   0.0000
4359 H 5.02295 13.1596 9.29104 H 1 RES   0.0000
4360 H -12.6468 9.05095 0.846698 H 1 RES   0.0000
4361 H 9.85625 -6.8628 11.7631 H 1 RES   0.0000
4362 H -11.7229 -5.4751 -12.6905 H 1 RES   0.0000
4363 H -7.92599 7.93294 -10.7584 H 1 RES   0.0000
4364 H -4.18227 8.31874 -0.51413 H 1 RES   0.0000
4365 H 3.12922 -12.8096 13.4041 H 1 RES   0.0000
4366 H -5.73768 -0.793694 -10.0443 H 1 RES   0.0000
4367 H 9.73733 -7.26491 -12.3724 H 1 RES   0.0000
4368 H 7.06687 13.2825 7.73783 H 1 RES   0.0000
4369 H 3.47582 -12.3266 -3.56056 H 1 RES   0.0000
4370 H 10.6182 2.19974 -9.08882 H 1 RES   0.0000
4371 H -5.0959 0.617297 -13.6284 H 1 RES   0.0000
4372 H -13.5426 -10.3184 -12.41 H 1 RES   0.0000
4373 H -9.30493 -11.7391 8.1614 H 1 RES   0.0000
4374 H -2.41293 -9.14188 13.5709 H 1 RES   0.0000
4375 H -2.75046 -0.109247 -6.34296 H 1 RES   0.0000
4376 H 5.06293 8.03101 5.19574 H 1 RES   0.0000
4377 H 7.96604 -5.31053 -11.9632 H 1 RES   0.0000
4378 H 10.2039 -6.0336 -7.24618 H 1 RES   0.0000
4379 H 11.9626 -14.4017 12.5667 H 1 RES   0.0000
4380 H 11.0688 12.8411 -5.76691 H 1 RES   0.0000
4381 H 2.36467 -3.14114 -10.6585 H 1 RES   0.0000
4382 H 13.0372 2.65277 8.16194 H 1 RES   0.0000
4383 H -7.89425 6.69631 -6.02354 H 1 RES   0.0000
4384 H -12.0711 11.1321 -8.24007 H 1 RES   0.0000
4385 H -12.3145 2.95129 7.58388 H 1 RES   0.0000
4386 H -11.145 -5.32757 -11.6443 H 1 RES   0.0000
4387 H -0.30597 -13.1941 -0.174797 H 1 RES   0.0000
4388 H -13.51 6.63249 0.218317 H 1 RES   0.0000
4389 H 8.13908 -9.30059 -8.55377 H 1 RES   0.0000
4390 H 12.8678 -9.56966 -7.0818 H 1 RES   0.0000
4391 H 13.1877 -2.76521 -0.401907 H 1 RES   0.0000
4392 H 11.6161 3.80397 10.5387 H 1 RES   0.0000
4393 H 11.9774 6.45363 -0.76624 H 1 RES   0.0000
4394 H -8.92646 -9.10334 12.0347 H 1 RES   0.0000
4395 H -2.99174 -1.14444 -7.64846 H 1 RES   0.0000
4396 H 1.14603 -8.49288 6.67694 H 1 RES   0.0000
4397 H 7.43123 -12.4164 -7.41925 H 1 RES   0.0000
4398 H -11.8844 11.1752 9.96988 H 1 RES   0.0000
4399 H -7.19476 10.6194 5.76845 H 1 RES   0.0000
4400 H -10.1438 -3.72398 12.446 H 1 RES   0.0000
4401 H 10.3262 -7.25989 -13.3035 H 1 RES   0.0000
4402 H -7.42854 -3.25367 9.80139 H 1 RES   0.0000
4403 H -4.58795 5.78518 10.5763 H 1 RES   0.0000
4404 H 6.59558 5.13413 10.8202 H 1 RES   0.0000
4405 H -1.94868 4.00489 1.79452 H 1 RES   0.0000
4406 H 13.9387 9.02484 -9.54081 H 1 RES   0.0000
4407 H -8.06256 14.8029 3.94772 H 1 RES   0.0000
4408 H 6.48862 12.9332 2.92626 H 1 RES   0.0000
4409 H 2.35046 5.4323 -12.9446 H 1 RES   0.0000
4410 H -10.1587 -5.81208 -10.3877 H 1 RES   0.0000
4411 H 4.63531 -5.43339 3.35867 H 1 RES   0.0000
4412 H 10.7957 8.6568 -5.73514 H 1 RES   0.0000
4413 H -2.43007 11.2185 13.0099 H 1 RES   0.0000
4414 H 4.7506 4.93822 -14.5803 H 1 RES   0.0000
4415 H 8.38033 5.65386 -5.06321 H 1 RES   0.0000
4416 H 13.37 4.57053 -4.11823 H 1 RES   0.0000
4417 H -11.6104 5.4127 4.18526 H 1 RES   0.0000
4418 H -5.48057 -6.11555 14.3807 H 1 RES   0.0000
4419 H -0.916481 -4.49259 14.2943 H 1 RES   0.0000
4420 H -8.0695 -13.875 -11.3276 H 1 RES   0.0000
4421 H -9.72656 -9.60563 -4.99819 H 1 RES   0.0000
4422 H -1.93793 -9.42937 1.1244 H 1 RES   0.0000
4423 H 4.44249 -13.7257 12.845 H 1 RES   0.0000
4424 H -6.29437 13.8715 11.0209 H 1 RES   0.0000
4425 H -5.25885 2.88506 9.08649 H 1 RES   0.0000
4426 H 1.75208 2.89452 -0.427227 H 1 RES   0.0000
4427 H 6.93881 -5.75166 2.82167 H 1 RES   0.0000
4428 H -7.67638 -14.2922 11.7514 H 1 RES   0.0000
4429 H -5.79507 -2.97746 14.1897 H 1 RES   0.0000
4430 H 11.3073 13.1804 -12.8918 H 1 RES   0.0000
4431 H 11.143 -7.38021 -2.01457 H 1 RES   0.0000
4432 H 1.48276 7.20198 12.6651 H 1 RES   0.0000
4433 H 2.28221 5.642 9.24827 H 1 RES   0.0000
4434 H -9.80014 3.91997 0.199699 H 1 RES   0.0000
4435 H 14.1435 12.1825 6.2356 H 1 RES   0.0000
4436 H -0.124879 9.22816 7.52896 H 1 RES   0.0000
4437 H -6.05566 -13.509 6.61582 H 1 RES   0.0000
4438 H -6.37583 12.8307 3.5124 H 1 RES   0.0000
4439 H -13.3494 -11.1149 4.45892 H 1 RES   0.0000
4440 H 0.747416 10.4987 -12.3036 H 1 RES   0.0000
4441 H 13.5371 -8.49895 -9.75639 H 1 RES   0.0000
4442 H 6.83912 -0.142849 14.2999 H 1 RES   0.0000
4443 H 7.47774 12.0309 -3.96715 H 1 RES   0.0000
4444 H -9.87947 4.60307 8.98291 H 1 RES   0.0000
4445 H 0.822759 -2.23108 0.925122 H 1 RES   0.0000
4446 H -0.462236 -12.4226 12.3896 H 1 RES   0.0000
4447 H 5.34135 6.79944 -11.339 H 1 RES   0.0000
4448 H -10.8869 14.3104 3.34289 H 1 RES   0.0000
4449 H -13.8127 -11.4425 3.19155 H 1 RES   0.0000
4450 H 7.0168 -2.16745 6.12227 H 1 RES   0.0000
4451 H 8.74005 7.68934 5.94833 H 1 RES   0.0000
4452 H 2.95606 -2.05988 8.32704 H 1 RES   0.0000
4453 H 8.31727 13.3282 -7.58272 H 1 RES   0.0000
4454 H 4.00206 8.87694 13.2472 H 1 RES   0.0000
4455 H -0.435517 -10.6253 12.2281 H 1 RES   0.0000
4456 H 5.33713 13.4762 2.62088 H 1 RES   0.0000
4457 H -12.187 -5.87237 1.35108 H 1 RES   0.0000
4458 H 11.0006 -2.15209 -14.6221 H 1 RES   0.0000
4459 H -9.01739 -0.603455 -6.96207 H 1 RES   0.0000
4460 H 12.0815 -2.9679 -2.04033 H 1 RES   0.0000
4461 H 14.1621 4.11591 -10.1692 H 1 RES   0.0000
4462 H -14.7169 -14.3798 -0.703233 H 1 RES   0.0000
4463 H -6.83372 -9.15071 1.63529 H 1 RES   0.0000
4464 H -0.717164 -4.41767 -1.88226 H 1 RES   0.0000
4465 H -10.3581 -8.48909 -10.9276 H 1 RES   0.0000
4466 H -10.2925 -8.66593 11.6713 H 1 RES   0.0000
4467 H -2.45993 -10.5282 14.5159 H 1 RES   0.0000
4468 H -8.71143 -6.11645 -9.45085 H 1 RES   0.0000
4469 H -13.6197 7.8195 6.16125 H 1 RES   0.0000
4470 H -1.90507 9.60889 14.3842 H 1 RES   0.0000
4471 H -4.85566 -3.94135 0.294838 H 1 RES   0.0000
4472 H -14.3883 -13.1966 9.81517 H 1 RES   0.0000
4473 H 6.43473 11.1725 -7.83459 H 1 RES   0.0000
4474 H -5.60531 11.0782 -6.48157 H 1 RES   0.0000
4475 H -3.97828 -3.29171 -10.7096 H 1 RES   0.0000
4476 H -6.08533 0.516204 -12.7007 H 1 RES   0.0000
4477 H 8.33949 6.01505 -3.83029 H 1 RES   0.0000
4478 H -3.1994 -6.66741 3.32246 H 1 RES   0.0000
4479 H 9.96767 12.5598 -0.381771 H 1 RES   0.0000
4480 H -5.23523 -14.7777 1.04733 H 1 RES   0.0000
4481 H -3.21568 6.06458 2.03335 H 1 RES   0.0000
4482 H 5.57837 -0.943334 -0.613844 H 1 RES   0.0000
4483 H 1.46478 4.55491 -6.38122 H 1 RES   0.0000
4484 H 3.03109 -7.09824 -7.73441 H 1 RES   0.0000
4485 H 10.5953 -10.7891 3.14868 H 1 RES   0.0000
4486 H 8.96303 4.6826 0.197521 H 1 RES   0.0000
4487 H -13.4349 14.3084 13.5217 H 1 RES   0.0000
4488 H -10.2044 -6.17655 13.9515 H 1 RES   0.0000
4489 H -10.8186 -9.44388 9.03632 H 1 RES   0.0000
4490 H 7.56449 -7.99877 9.37699 H 1 RES   0.0000
4491 H -4.42019 -9.59414 -9.24437 H 1 RES   0.0000
4492 H 8.16284 -6.95612 -1.41697 H 1 RES   0.0000
4493 H -12.835 0.670066 7.90779 H 1 RES   0.0000
4494 H 11.3205 0.911221 5.72442 H 1 RES   0.0000
4495 H 7.42304 10.092 9.15099 H 1 RES   0.0000
4496 H -9.307 3.3016 10.2373 H 1 RES   0.0000
4497 H -3.57514 10.8041 -1.61806 H 1 RES   0.0000
4498 H 0.626075 13.9254 -0.804578 H 1 RES   0.0000
4499 H -12.1457 -5.32496 -3.85388 H 1 RES   0.0000
4500 H 10.7105 12.7782 14.3401 H 1 RES   0.0000
4501 H 6.21637 -6.1798 -12.4403 H 1 RES   0.0000
4502 H -13.443 11.4164 -5.22375 H 1 RES   0.0000
4503 H -8.41595 -13.3425 1.83787 H 1 RES   0.0000
4504 H 4.42816 6.05142 4.14889 H 1 RES   0.0000
4505 H -4.77569 5.79841 -1.35981 H 1 RES   0.0000
4506 H 2.16373 -3.236 -2.89456 H 1 RES   0.0000
4507 H 1.10202 10.8917 9.82769 H 1 RES   0.0000
4508 H -2.95261 -4.49412 2.48379 H 1 RES   0.0000
4509 H -9.52876 -13.3104 3.28742 H 1 RES   0.0000
4510 H -7.4489 2.49368 1.03513 H 1 RES   0.0000
4511 H 4.001 -2.0575 4.31921 H 1 RES   0.0000
4512 H 13.6356 -2.43611 -5.73547 H 1 RES   0.0000
4513 H 10.2765 10.7692 12.9433 H 1 RES   0.0000
4514 H 9.93233 -3.01966 -3.9536 H 1 RES   0.0000
4515 H -7.85881 8.28535 12.5271 H 1 RES   0.0000
4516 H 5.61682 -4.40957 6.77334 H 1 RES   0.0000
4517 H 9.67827 -8.48434 13.3536 H 1 RES   0.0000
4518 H 14.7906 11.1349 1.96175 H 1 RES   0.0000
4519 H -14.3794 6.70276 -3.53671 H 1 RES   0.0000
4520 H -12.1242 12.8498 5.13715 H 1 RES   0.0000
4521 H 9.22956 -1.17867 10.6613 H 1 RES   0.0000
4522 H 12.8461 10.1468 5.48966 H 1 RES   0.0000
4523 H -10.2641 5.88929 -10.8482 H 1 RES   0.0000
4524 H -10.5224 -2.95865 14.8157 H 1 RES   0.0000
4525 H 5.9314 -4.68802 -5.88105 H 1 RES   0.0000
4526 H 6.32553 12.3993 -3.59847 H 1 RES   0.0000
4527 H -11.247 -11.5529 -1.57294 H 1 RES   0.0000
4528 H 8.88498 8.94645 -5.60273 H 1 RES   0.0000
4529 H -1.64745 -9.71182 9.60515 H 1 RES   0.0000
4530 H -9.44864 -8.26451 -4.89247 H 1 RES   0.0000
4531 H -0.855226 -9.46391 -3.05297 H 1 RES   0.0000
4532 H 5.06105 -13.4527 -10.1318 H 1 RES   0.0000
4533 H 4.55045 1.63002 10.2901 H 1 RES   0.0000
4534 H -10.594 -7.24108 -6.4188 H 1 RES   0.0000
4535 H -4.30173 10.1385 -0.197122 H 1 RES   0.0000
4536 H -12.5313 11.2892 -14.4778 H 1 RES   0.0000
4537 H -12.9264 -11.2914 7.0557 H 1 RES   0.0000
4538 H 14.4192 -2.48633 -10.3865 H 1 RES   0.0000
4539 H 9.11911 7.68116 -14.3351 H 1 RES   0.0000
4540 H 5.31262 4.27197 14.3361 H 1 RES   0.0000
4541 H 13.6316 1.07856 3.50886 H 1 RES   0.0000
4542 H -13.7418 9.06575 -8.81627 H 1 RES   0.0000
4543 H -2.70293 1.64561 -8.89297 H 1 RES   0.0000
4544 H -13.2581 -12.9428 5.06893 H 1 RES   0.0000
4545 H -1.34629 11.3183 -14.0206 H 1 RES   0.0000
4546 H 6.18325 10.805 0.413881 H 1 RES   0.0000
4547 H -4.03398 14.6887 -6.80337 H 1 RES   0.0000
4548 H -12.1344 -7.13654 2.59309 H 1 RES   0.0000
4549 H 8.37687 -6.48258 12.1087 H 1 RES   0.0000
4550 H 7.6983 -4.91559 -5.11406 H 1 RES   0.0000
4551 H 13.519 7.77891 3.74395 H 1 RES   0.0000
4552 H -3.76114 -0.277152 -11.2902 H 1 RES   0.0000
4553 H 5.17311 -6.10398 4.07634 H 1 RES   0.0000
4554 H 12.0267 7.49008 1.54578 H 1 RES   0.0000
4555 H -0.710862 10.5383 1.79628 H 1 RES   0.0000
4556 H -3.56604 7.03831 -8.84432 H 1 RES   0.0000
4557 H -6.75052 -8.10822 7.25753 H 1 RES   0.0000
4558 H 8.64618 14.6751 12.2741 H 1 RES   0.0000
4559 H -8.34899 -13.0467 -14.5033 H 1 RES   0.0000
4560 H -12.6063 12.29 10.825 H 1 RES   0.0000
4561 H 8.51304 -7.00676 0.112417 H 1 RES   0.0000
4562 H 1.7846 -4.4271 -6.04334 H 1 RES   0.0000
4563 H -13.48 -4.25578 9.79226 H 1 RES   0.0000
4564 H 1.79347 -5.63185 -9.77924 H 1 RES   0.0000
4565 H 1.13138 7.44026 8.6692 H 1 RES   0.0000
4566 H 6.92851 -0.756131 -2.78402 H 1 RES   0.0000
4567 H -11.5224 -5.3711 -10.5184 H 1 RES   0.0000
4568 H 13.8147 -12.4567 2.05595 H 1 RES   0.0000
4569 H 1.79647 -14.2009 6.69982 H 1 RES   0.0000
4570 H 0.105492 11.5819 7.79177 H 1 RES   0.0000
4571 H -10.0141 5.67268 -8.39832 H 1 RES   0.0000
4572 H 0.090434 -13.2666 6.93977 H 1 RES   0.0000
4573 H 12.6558 -10.3021 -11.4133 H 1 RES   0.0000
4574 H -14.4521 -12.1126 -13.2132 H 1 RES   0.0000
4575 H -10.8068 -10.9535 6.09216 H 1 RES   0.0000
4576 H 14.4663 -11.4941 4.79884 H 1 RES   0.0000
4577 H -9.23 14.5464 -2.12234 H 1 RES   0.0000
4578 H 5.64598 -7.28734 -13.2212 H 1 RES   0.0000
4579 H 14.2938 -8.57426 -8.86066 H 1 RES   0.0000
4580 H -11.8169 4.29373 5.29563 H 1 RES   0.0000
4581 H -6.56293 5.96586 2.75287 H 1 RES   0.0000
4582 H 2.243 -2.77056 -1.14772 H 1 RES   0.0000
4583 H -9.92111 3.45855 -4.19112 H 1 RES   0.0000
4584 H -4.79061 9.13017 -3.67549 H 1 RES   0.0000
4585 H 1.4723 11.5334 12.1683 H 1 RES   0.0000
4586 H 5.60317 0.75309 4.99246 H 1 RES   0.0000
4587 H 12.0501 -12.7658 -9.85782 H 1 RES   0.0000
4588 H -6.66265 8.93536 10.9009 H 1 RES   0.0000
4589 H -1.3971 10.2616 10.774 H 1 RES   0.0000
4590 H -4.04324 6.37619 9.55363 H 1 RES   0.0000
4591 H 11.5175 -11.6869 5.59223 H 1 RES   0.0000
4592 H -6.02889 10.3464 -11.066 H 1 RES   0.0000
4593 H -7.466 6.98551 -2.28036 H 1 RES   0.0000
4594 H -4.78118 0.658603 10.1267 H 1 RES   0.0000
4595 H -14.2173 -8.79989 -1.24542 H 1 RES   0.0000
4596 H 3.33608 -0.124254 7.43173 H 1 RES   0.0000
4597 H 7.58803 -9.7745 4.43238 H 1 RES   0.0000
4598 H 10.5464 8.40474 7.87808 H 1 RES   0.0000
4599 H 13.4299 12.4858 -9.06955 H 1 RES   0.0000
4600 H -4.10044 -13.9992 7.0634 H 1 RES   0.0000
4601 H -1.49565 -12.2021 2.73768 H 1 RES   0.0000
4602 H -9.8787 9.02594 3.73566 H 1 RES   0.0000
4603 H -2.80609 -8.23108 1.50648 H 1 RES   0.0000
4604 H -4.55592 -11.4186 -13.9143 H 1 RES   0.0000
4605 H 7.96889 -8.75219 2.63566 H 1 RES   0.0000
4606 H 6.87284 0.54484 -13.914 H 1 RES   0.0000
4607 H 13.9891 14.2863 9.77371 H 1 RES   0.0000
4608 H -4.3806 14.5902 5.6548 H 1 RES   0.0000
4609 H -12.5923 2.23835 0.183715 H 1 RES   0.0000
4610 H 13.9289 1.41606 -14.2558 H 1 RES   0.0000
4611 H -13.7631 -0.144481 10.4534 H 1 RES   0.0000
4612 H 9.02893 7.83394 -3.78425 H 1 RES   0.0000
4613 H -8.6554 -11.3385 12.155 H 1 RES   0.0000
4614 H -3.31644 6.41194 3.45609 H 1 RES   0.0000
4615 H -5.36452 9.71074 6.96555 H 1 RES   0.0000
4616 H -12.7586 8.77157 -2.66881 H 1 RES   0.0000
4617 H 2.63779 -14.7224 -8.52011 H 1 RES   0.0000
4618 H -10.0152 8.77209 12.2942 H 1 RES   0.0000
4619 H -10.8386 -14.4763 -0.446135 H 1 RES   0.0000
4620 H 4.17266 -10.2317 -9.54225 H 1 RES   0.0000
4621 H -4.64313 -7.03464 6.89019 H 1 RES   0.0000
4622 H -10.6171 6.67141 -0.126828 H 1 RES   0.0000
4623 H -1.68708 10.5012 -13.5115 H 1 RES   0.0000
4624 H -12.2039 1.72505 -6.93633 H 1 RES   0.0000
4625 H -13.6779 -11.2799 5.63243 H 1 RES   0.0000
4626 H -9.73327 -7.36038 11.9131 H 1 RES   0.0000
4627 H 0.399673 -4.17689 -0.0841796 H 1 RES   0.0000
4628 H -1.6664 3.11415 13.8926 H 1 RES   0.0000
4629 H 6.36927 14.5907 -2.68417 H 1 RES   0.0000
4630 H 11.1367 -5.48502 -12.1537 H 1 RES   0.0000
4631 H 10.1612 -13.9657 -7.56029 H 1 RES   0.0000
4632 H -6.07603 -5.66526 8.51369 H 1 RES   0.0000
4633 H -3.81122 13.0166 5.07266 H 1 RES   0.0000
4634 H 6.796 -5.55295 0.010234 H 1 RES   0.0000
4635 H -7.63096 -10.1264 -2.3704 H 1 RES   0.0000
4636 H 14.0737 -2.6485 0.637965 H 1 RES   0.0000
4637 H -1.39166 -9.85985 8.13909 H 1 RES   0.0000
4638 H -2.1903 2.10455 -4.97543 H 1 RES   0.0000
4639 H -10.1905 4.85738 -2.81316 H 1 RES   0.0000
4640 H -13.7535 1.46849 10.0217 H 1 RES   0.0000
4641 H -10.8961 -8.22768 -7.22511 H 1 RES   0.0000
4642 H 0.759388 3.51533 -6.19812 H 1 RES   0.0000
4643 H 10.6811 -9.17553 11.4584 H 1 RES   0.0000
4644 H -8.43612 -10.1981 6.74779 H 1 RES   0.0000
4645 H 13.3596 -2.07681 -10.184 H 1 RES   0.0000
4646 H 1.86723 -9.97617 -7.64322 H 1 RES   0.0000
4647 H -8.20946 7.05138 -14.0823 H 1 RES   0.0000
4648 H -2.40165 4.52179 -9.6945 H 1 RES   0.0000
4649 H -6.84053 8.23966 7.58993 H 1 RES   0.0000
4650 H 10.2314 6.38537 -14.1571 H 1 RES   0.0000
4651 H 4.09679 -12.3085 2.85495 H 1 RES   0.0000
4652 H -3.03328 13.2555 8.9394 H 1 RES   0.0000
4653 H -14.517 -10.8437 3.97796 H 1 RES   0.0000
4654 H -11.5611 2.92834 1.4771 H 1 RES   0.0000
4655 H -1.86701 -13.7001 2.20432 H 1 RES   0.0000
4656 H 13.5904 4.64797 3.92749 H 1 RES   0.0000
4657 H 2.70508 -14.4109 3.01287 H 1 RES   0.0000
4658 H 11.6146 -7.36172 7.64043 H 1 RES   0.0000
4659 H 11.9972 -13.0667 -13.8642 H 1 RES   0.0000
4660 H 11.151 6.48159 -1.64066 H 1 RES   0.0000
4661 H -10.7811 13.0264 6.42874 H 1 RES   0.0000
4662 H -1.62592 -9.51489 -11.7413 H 1 RES   0.0000
4663 H 6.37246 -9.82683 1.28142 H 1 RES   0.0000
4664 H -11.0468 -5.39975 -6.26311 H 1 RES   0.0000
4665 H -5.11716 -8.9696 6.89917 H 1 RES   0.0000
4666 H -9.43634 4.59427 6.75738 H 1 RES   0.0000
4667 H 4.55631 -9.42272 -0.786303 H 1 RES   0.0000
4668 H -3.36635 4.22961 8.8468 H 1 RES   0.0000
4669 H 10.625 -9.49278 -7.19742 H 1 RES   0.0000
4670 H 0.307966 -9.835 9.10889 H 1 RES   0.0000
4671 H 12.3935 14.5237 3.02916 H 1 RES   0.0000
4672 H -3.33509 -4.41406 10.392 H 1 RES   0.0000
4673 H -5.73824 -5.81483 -9.62305 H 1 RES   0.0000
4674 H -8.52344 4.14677 2.68764 H 1 RES   0.0000
4675 H 12.7389 -6.61251 12.8966 H 1 RES   0.0000
4676 H 0.0615163 -8.94161 4.81531 H 1 RES   0.0000
4677 H 0.444596 -5.34373 -6.34945 H 1 RES   0.0000
4678 H -7.97577 10.2234 -3.71356 H 1 RES   0.0000
4679 H -14.6839 4.13947 -4.34466 H 1 RES   0.0000
4680 H -13.3632 9.58125 -2.3992 H 1 RES   0.0000
4681 H 4.4883 4.37895 11.8206 H 1 RES   0.0000
4682 H -11.502 13.34 7.36805 H 1 RES   0.0000
4683 H -3.22073 -10.7504 -11.4881 H 1 RES   0.0000
4684 H -7.18508 5.14869 -13.1358 H 1 RES   0.0000
4685 H -3.06147 -13.7303 6.76742 H 1 RES   0.0000
4686 H 7.17948 -9.72163 -4.14155 H 1 RES   0.0000
4687 H -3.70468 -5.16222 -12.8655 H 1 RES   0.0000
4688 H -2.8299 -0.070769 4.35544 H 1 RES   0.0000
4689 H 3.64879 12.91 -9.1503 H 1 RES   0.0000
4690 H 2.30794 13.5924 -3.46195 H 1 RES   0.0000
4691 H -3.03897 3.92779 -5.54873 H 1 RES   0.0000
4692 H -2.12238 -0.785538 -6.96104 H 1 RES   0.0000
4693 H -1.59787 3.59541 6.98882 H 1 RES   0.0000
4694 H -4.13492 -10.2618 -6.9414 H 1 RES   0.0000
4695 H 12.0939 9.93979 0.799787 H 1 RES   0.0000
4696 H 14.609 -13.8965 -11.0715 H 1 RES   0.0000
4697 H 0.645047 10.5412 -6.93793 H 1 RES   0.0000
4698 H 7.1956 -8.00138 5.16353 H 1 RES   0.0000
4699 H -6.73544 8.53855 -0.79537 H 1 RES   0.0000
4700 H -11.387 7.49186 5.08445 H 1 RES   0.0000
4701 H 14.7457 1.57088 2.42936 H 1 RES   0.0000
4702 H -12.4302 7.6398 5.08894 H 1 RES   0.0000
4703 H 14.3084 -3.6883 10.4682 H 1 RES   0.0000
4704 H -5.47293 5.43038 -11.3973 H 1 RES   0.0000
4705 H 13.2836 7.95652 -3.46676 H 1 RES   0.0000
4706 H -13.5377 -13.7671 10.1608 H 1 RES   0.0000
4707 H 14.6682 -10.176 8.28914 H 1 RES   0.0000
4708 H -8.62846 12.7129 6.04469 H 1 RES   0.0000
4709 H -11.5681 11.4416 -4.26024 H 1 RES   0.0000
4710 H -6.98715 -10.3018 0.345708 H 1 RES   0.0000
4711 H -9.06141 -8.36454 11.2507 H 1 RES   0.0000
4712 H -1.30426 3.51482 -4.75113 H 1 RES   0.0000
4713 H -10.5678 1.41622 13.3377 H 1 RES   0.0000
4714 H -2.77804 -14.0701 -9.8676 H 1 RES   0.0000
4715 H 12.8951 4.76141 4.74392 H 1 RES   0.0000
4716 H -2.55231 -10.0386 10.2193 H 1 RES   0.0000
4717 H 4.78265 -9.15336 -1.87734 H 1 RES   0.0000
4718 H -9.26939 -8.95657 -0.835496 H 1 RES   0.0000
4719 H 1.09818 10.6933 14.3612 H 1 RES   0.0000
4720 H -14.0374 -0.123855 -0.589896 H 1 RES   0.0000
4721 H -2.62932 1.05951 -0.332634 H 1 RES   0.0000
4722 H -5.88623 11.5475 0.97457 H 1 RES   0.0000
4723 H 6.98367 -11.5881 7.45858 H 1 RES   0.0000
4724 H -3.32052 -6.70013 9.17526 H 1 RES   0.0000
4725 H 1.3233 13.0064 -13.9948 H 1 RES   0.0000
4726 H -5.45981 -9.6621 8.50053 H 1 RES   0.0000
4727 H -4.34831 14.8072 0.497485 H 1 RES   0.0000
4728 H 14.6504 5.1738 -10.5415 H 1 RES   0.0000
4729 H 8.34094 -6.8079 -11.0996 H 1 RES   0.0000
4730 H 11.7977 9.04994 2.56022 H 1 RES   0.0000
4731 H -2.8082 8.69948 -8.4289 H 1 RES   0.0000
4732 H -12.3912 9.68694 -13.7663 H 1 RES   0.0000
4733 H -11.7929 -2.85244 -2.47909 H 1 RES   0.0000
4734 H 9.53366 -10.9642 3.07013 H 1 RES   0.0000
4735 H 3.946 0.295382 -11.4848 H 1 RES   0.0000
4736 H -4.53155 2.79253 -7.14473 H 1 RES   0.0000
4737 H 9.93898 2.50971 -12.992 H 1 RES   0.0000
4738 H 14.8224 8.69054 -5.62101 H 1 RES   0.0000
4739 H -12.975 1.06859 -7.68322 H 1 RES   0.0000
4740 H -13.1788 4.60665 11.3053 H 1 RES   0.0000
4741 H -12.3993 9.13592 -6.78959 H 1 RES   0.0000
4742 H 2.49627 0.538794 11.0612 H 1 RES   0.0000
4743 H -11.195 10.3609 10.4786 H 1 RES   0.0000
4744 H 11.6445 2.07887 -1.79795 H 1 RES   0.0000
4745 H -7.25867 10.843 -7.80538 H 1 RES   0.0000
4746 H 8.78179 13.7622 -13.0458 H 1 RES   0.0000
4747 H -5.37395 -14.1613 10.2911 H 1 RES   0.0000
4748 H 1.72974 4.51097 -12.9783 H 1 RES   0.0000
4749 H -12.1728 3.46076 -12.6293 H 1 RES   0.0000
4750 H -10.8513 13.5314 -2.01404 H 1 RES   0.0000
4751 H 5.02133 -6.81812 -3.42982 H 1 RES   0.0000
4752 H 12.9282 -3.21255 5.86182 H 1 RES   0.0000
4753 H 14.1009 9.22551 -14.6486 H 1 RES   0.0000
4754 H 4.21491 6.57428 9.29909 H 1 RES   0.0000
4755 H -12.461 13.9816 7.57523 H 1 RES   0.0000
4756 H -2.71941 5.09975 14.7639 H 1 RES   0.0000
4757 H 9.39409 1.19323 -3.60112 H 1 RES   0.0000
4758 H 5.46861 -13.0508 10.8383 H 1 RES   0.0000
4759 H -8.9338 -1.45826 7.3957 H 1 RES   0.0000
4760 H 7.14366 -3.72274 -0.156349 H 1 RES   0.0000
4761 H -3.24878 8.45086 12.6149 H 1 RES   0.0000
4762 H -7.33054 14.1735 -2.34366 H 1 RES   0.0000
4763 H 2.17857 5.9343 3.17604 H 1 RES   0.0000
4764 H 10.5448 6.12683 7.7941 H 1 RES   0.0000
4765 H 3.00899 -10.5075 3.49301 H 1 RES   0.0000
4766 H -6.46773 -7.1002 -6.94834 H 1 RES   0.0000
4767 H 12.5747 0.877465 12.0868 H 1 RES   0.0000
4768 H 3.89627 7.98666 4.53438 H 1 RES   0.0000
4769 H -5.58221 4.25501 -12.4005 H 1 RES   0.0000
4770 H 10.1111 -6.43992 -11.109 H 1 RES   0.0000
4771 H 8.23249 4.48973 8.72118 H 1 RES   0.0000
4772 H 5.63882 -13.7594 9.02227 H 1 RES   0.0000
4773 H 0.925239 2.85896 11.4336 H 1 RES   0.0000
4774 H 13.6412 5.93163 4.80684 H 1 RES   0.0000
4775 H -2.99971 0.197548 -12.609 H 1 RES   0.0000
4776 H -11.8376 -12.5384 -11.1912 H 1 RES   0.0000
4777 H 13.8937 4.28479 -7.84041 H 1 RES   0.0000
4778 H 4.26418 -3.02242 -9.62717 H 1 RES   0.0000
4779 H -1.42635 1.9061 7.82084 H 1 RES   0.0000
4780 H -11.9928 8.31865 14.318 H 1 RES   0.0000
4781 H -13.5079 14.6564 2.66036 H 1 RES   0.0000
4782 H 12.6138 5.95094 -6.32935 H 1 RES   0.0000
4783 H 12.4149 -2.72227 12.7082 H 1 RES   0.0000
4784 H 1.90073 13.6001 -10.3597 H 1 RES   0.0000
4785 H 8.36763 -8.88569 -13.0857 H 1 RES   0.0000
4786 H 7.24188 9.18422 8.50719 H 1 RES   0.0000
4787 H 3.10498 -1.8099 -6.28472 H 1 RES   0.0000
4788 H 3.90245 5.72915 -10.7258 H 1 RES   0.0000
4789 H 7.28554 0.392487 -4.84171 H 1 RES   0.0000
4790 H -5.51378 -13.2813 2.72445 H 1 RES   0.0000
4791 H 11.3442 7.2174 10.0837 H 1 RES   0.0000
4792 H 3.8154 2.05908 10.7674 H 1 RES   0.0000
4793 H -13.3273 13.2036 -6.80598 H 1 RES   0.0000
4794 H -14.3494 2.29487 3.44621 H 1 RES   0.0000
4795 H -5.32434 -13.7724 3.72 H 1 RES   0.0000
4796 H 10.1647 13.7298 -9.77013 H 1 RES   0.0000
4797 H 7.04794 -13.0238 -1.04568 H 1 RES   0.0000
4798 H -2.68575 -3.63244 13.9134 H 1 RES   0.0000
4799 H -5.3823 -9.97208 -13.9039 H 1 RES   0.0000
4800 H 4.29513 4.07891 -3.54413 H 1 RES   0.0000
4801 H -14.3635 1.67032 14.6963 H 1 RES   0.0000
4802 H 14.2173 7.53453 -9.77198 H 1 RES   0.0000
4803 H -6.23591 14.4135 -8.39788 H 1 RES   0.0000
4804 H 5.62043 5.98375 11.2494 H 1 RES   0.0000
4805 H -4.23314 2.75491 -12.8843 H 1 RES   0.0000
4806 H 13.6213 8.61152 14.3136 H 1 RES   0.0000
4807 H -11.1073 -9.20656 -6.93651 H 1 RES   0.0000
4808 H 11.5062 10.8493 -14.1515 H 1 RES   0.0000
4809 H -1.24469 -1.83862 -2.47694 H 1 RES   0.0000
4810 H 3.50737 14.3663 -3.00371 H 1 RES   0.0000
4811 H 13.7888 8.48544 6.3998 H 1 RES   0.0000
4812 H 4.44653 -14.4724 12.1543 H 1 RES   0.0000
4813 H 2.77108 7.89947 4.19824 H 1 RES   0.0000
4814 H 9.02161 -5.75331 9.23222 H 1 RES   0.0000
4815 H -4.07763 -9.38527 -14.4242 H 1 RES   0.0000
4816 H 11.3139 -3.6635 14.0058 H 1 RES   0.0000
4817 H 7.40793 6.38897 -1.30054 H 1 RES   0.0000
4818 H -4.06612 -8.87424 6.04076 H 1 RES   0.0000
4819 H 13.8517 -6.92149 -6.75625 H 1 RES   0.0000
4820 H 3.78881 1.4515 -11.2541 H 1 RES   0.0000
4821 H -5.66633 -12.2008 9.82115 H 1 RES   0.0000
4822 H -0.858683 -2.4424 -6.18429 H 1 RES   0.0000
4823 H -2.90301 13.8181 -1.9067 H 1 RES   0.0000
4824 H 12.9009 -0.801327 -5.56298 H 1 RES   0.0000
4825 H -7.11858 9.86773 -11.1781 H 1 RES   0.0000
4826 H 13.4006 -13.2192 -2.81276 H 1 RES   0.0000
4827 H -11.8999 8.92338 -5.92439 H 1 RES   0.0000
4828 H -10.7826 -10.3518 -6.24409 H 1 RES   0.0000
4829 H 4.01261 -3.04753 -4.56214 H 1 RES   0.0000
4830 H -12.6277 -1.66333 -12.9915 H 1 RES   0.0000
4831 H -2.42891 12.2203 11.1711 H 1 RES   0.0000
4832 H -2.55609 2.37654 -11.0445 H 1 RES   0.0000
4833 H -8.83466 1.33802 0.582522 H 1 RES   0.0000
4834 H -1.7441 10.4924 -6.76275 H 1 RES   0.0000
4835 H -6.39718 -2.88013 -1.81961 H 1 RES   0.0000
4836 H -6.17821 -10.8427 -8.22999 H 1 RES   0.0000
4837 H -7.87889 -4.57707 -12.2421 H 1 RES   0.0000
4838 H 2.85578 -12.4454 2.8589 H 1 RES   0.0000
4839 H 9.8928 -10.3803 -12.871 H 1 RES   0.0000
4840 H 5.42525 -3.94455 4.9422 H 1 RES   0.0000
4841 H 12.592 0.507129 -13.4236 H 1 RES   0.0000
4842 H 11.1934 -14.294 0.870169 H 1 RES   0.0000
4843 H -7.66974 9.36263 -0.0942465 H 1 RES   0.0000
4844 H 13.5814 -14.7874 -5.5709 H 1 RES   0.0000
4845 H 10.3424 13.6027 5.77029 H 1 RES   0.0000
4846 H 11.7732 11.3428 -6.65581 H 1 RES   0.0000
4847 H -4.41307 9.43879 10.0441 H 1 RES   0.0000
4848 H 0.716064 -6.22152 -10.7255 H 1 RES   0.0000
4849 H -8.34121 11.6843 4.41388 H 1 RES   0.0000
4850 H -2.2839 -2.48506 6.99213 H 1 RES   0.0000
4851 H -0.0693823 13.2671 11.9729 H 1 RES   0.0000
4852 H -14.1472 -3.02861 -8.67242 H 1 RES   0.0000
4853 H -8.18474 9.97215 -7.99785 H 1 RES   0.0000
4854 H -13.9131 -11.3332 -3.32865 H 1 RES   0.0000
4855 H 5.2645 14.2548 -2.69548 H 1 RES   0.0000
4856 H 11.1697 -4.54488 -3.17665 H 1 RES   0.0000
4857 H 12.9332 12.2208 -14.6116 H 1 RES   0.0000
4858 H 6.83437 2.23115 -6.72308 H 1 RES   0.0000
4859 H -4.56521 4.14468 8.00667 H 1 RES   0.0000
4860 H 11.9575 13.8045 14.0347 H 1 RES   0.0000
4861 H -4.96892 3.79651 13.0466 H 1 RES   0.0000
4862 H -8.65798 9.66637 -11.2225 H 1 RES   0.0000
4863 H -0.926008 -9.73271 10.9213 H 1 RES   0.0000
4864 H 8.7997 -14.556 13.3671 H 1 RES   0.0000
4865 H -2.19771 -14.5079 -6.94539 H 1 RES   0.0000
4866 H -1.40146 13.9016 -2.83065 H 1 RES   0.0000
4867 H -5.45304 -13.4141 -10.5212 H 1 RES   0.0000
4868 H -6.63524 6.45734 -0.677481 H 1 RES   0.0000
4869 H 1.19305 7.53025 -12.56 H 1 RES   0.0000
4870 H -7.08828 10.9547 -4.67638 H 1 RES   0.0000
4871 H -3.55039 1.88337 -11.1143 H 1 RES   0.0000
4872 H -9.96675 7.17601 -5.26455 H 1 RES   0.0000
4873 H 5.39091 -9.2381 -11.5882 H 1 RES   0.0000
4874 H 3.14958 2.44632 11.4037 H 1 RES   0.0000
4875 H 6.29461 9.60271 -7.59491 H 1 RES   0.0000
4876 H 11.455 12.0949 1.75542 H 1 RES   0.0000
4877 H 3.08639 10.4029 -11.0305 H 1 RES   0.0000
4878 H -9.72083 11.8385 12.7056 H 1 RES   0.0000
4879 H 2.80049 0.960951 -10.8435 H 1 RES   0.0000
4880 H -1.45622 7.39563 8.82939 H 1 RES   0.0000
4881 H -3.04114 -5.52474 -5.6345 H 1 RES   0.0000
4882 H -14.1108 13.8289 3.9945 H 1 RES   0.0000
4883 H -7.40943 5.49101 7.95229 H 1 RES   0.0000
4884 H 9.80795 7.97327 -11.932 H 1 RES   0.0000
4885 H -9.78801 -9.47186 6.34357 H 1 RES   0.0000
4886 H 10.3793 9.91214 5.64449 H 1 RES   0.0000
4887 H 10.4609 -4.57961 9.57792 H 1 RES   0.0000
4888 H -13.4468 -5.88411 -8.85661 H 1 RES   0.0000
4889 H 3.17868 -5.78432 9.30847 H 1 RES   0.0000
4890 H -1.10854 10.3786 -14.6205 H 1 RES   0.0000
4891 H 6.78349 -5.60806 14.0813 H 1 RES   0.0000
4892 H 9.04345 10.3604 -4.47718 H 1 RES   0.0000
4893 H -11.236 11.1789 -13.1473 H 1 RES   0.0000
4894 H 3.00794 -1.88362 -2.51821 H 1 RES   0.0000
4895 H 3.62609 6.54988 1.74244 H 1 RES   0.0000
4896 H -11.9055 6.22128 -3.33792 H 1 RES   0.0000
4897 H 8.21969 6.92875 1.91483 H 1 RES   0.0000
4898 H 3.71535 8.93737 5.90502 H 1 RES   0.0000
4899 H 5.55442 11.9538 0.649593 H 1 RES   0.0000
4900 H 0.506284 0.85917 6.37073 H 1 RES   0.0000
4901 H -1.95864 14.3768 6.87139 H 1 RES   0.0000
4902 H 0.333918 6.84781 -1.45612 H 1 RES   0.0000
4903 H -0.388229 -8.77611 2.36485 H 1 RES   0.0000
4904 H -3.97287 0.142482 -8.84506 H 1 RES   0.0000
4905 H -8.62589 12.7728 11.6716 H 1 RES   0.0000
4906 H -10.6223 11.6837 -3.41878 H 1 RES   0.0000
4907 H 4.68304 -10.2348 -14.0412 H 1 RES   0.0000
4908 H -14.8337 2.68281 9.002 H 1 RES   0.0000
4909 H 6.91263 -13.4909 -2.40335 H 1 RES   0.0000
4910 H -14.4437 8.39778 0.633074 H 1 RES   0.0000
4911 H 4.79546 -6.23713 -7.39215 H 1 RES   0.0000
4912 H -7.60078 10.8745 11.3316 H 1 RES   0.0000
4913 H -11.9415 -13.2063 -6.5098 H 1 RES   0.0000
4914 H -8.48921 4.86367 6.81021 H 1 RES   0.0000
4915 H 4.06944 -14.2997 -3.23061 H 1 RES   0.0000
4916 H 9.50781 4.74439 -8.49397 H 1 RES   0.0000
4917 H 2.17916 12.2468 5.75123 H 1 RES   0.0000
4918 H 10.9542 -13.0445 3.36744 H 1 RES   0.0000
4919 H 0.162869 -7.89329 10.0219 H 1 RES   0.0000
4920 H 6.54512 -10.591 -14.0925 H 1 RES   0.0000
4921 H 4.90033 12.2486 -13.849 H 1 RES   0.0000
4922 H 10.7252 -9.72854 -8.34755 H 1 RES   0.0000
4923 H 9.91911 5.89946 5.33405 H 1 RES   0.0000
4924 H -12.5274 0.20725 -0.202538 H 1 RES   0.0000
4925 H -4.61717 -8.43532 12.3381 H 1 RES   0.0000
4926 H 13.5699 0.578374 10.6051 H 1 RES   0.0000
4927 H 5.42385 -3.45971 12.0564 H 1 RES   0.0000
4928 H 4.03838 13.8803 -8.2921 H 1 RES   0.0000
4929 H -13.5071 5.49338 9.69204 H 1 RES   0.0000
4930 H 10.5052 -9.40494 5.35022 H 1 RES   0.0000
4931 H -11.6278 3.99729 9.69319 H 1 RES   0.0000
4932 H -10.0712 -7.98621 -1.08079 H 1 RES   0.0000
4933 H 12.5614 -3.5383 9.85807 H 1 RES   0.0000
4934 H 12.0697 3.04009 -6.72264 H 1 RES   0.0000
4935 H 9.30576 -7.3449 4.17628 H 1 RES   0.0000
4936 H 10.9523 -9.80993 2.285 H 1 RES   0.0000
4937 H -10.8666 -10.5474 8.87086 H 1 RES   0.0000
4938 H 13.4611 -6.95523 -5.1815 H 1 RES   0.0000
4939 H 9.35816 5.55087 -4.26467 H 1 RES   0.0000
4940 H -12.2966 2.92833 3.75514 H 1 RES   0.0000
4941 H -8.84931 7.00393 -0.680858 H 1 RES   0.0000
4942 H -3.40152 8.89449 -10.0632 H 1 RES   0.0000
4943 H 0.395458 -6.98737 0.29637 H 1 RES   0.0000
4944 H 12.1759 -2.23188 0.464403 H 1 RES   0.0000
4945 H 5.11198 3.53189 -0.341725 H 1 RES   0.0000
4946 H -8.93499 -13.0946 -13.5735 H 1 RES   0.0000
4947 H 10.9874 8.91751 3.52219 H 1 RES   0.0000
4948 H -9.43998 9.49286 -14.7519 H 1 RES   0.0000
4949 H -5.7105 9.59276 -3.24077 H 1 RES   0.0000
4950 H -12.261 -14.7498 -10.621 H 1 RES   0.0000
4951 H 9.50364 -8.75522 4.699 H 1 RES   0.0000
4952 H 7.09129 7.59217 -7.96066 H 1 RES   0.0000
4953 H -9.29395 -9.15329 1.53202 H 1 RES   0.0000
4954 H -11.0707 -7.20223 -9.20194 H 1 RES   0.0000
4955 H -12.9844 1.14847 12.836 H 1 RES   0.0000
4956 H 1.43529 4.95839 4.6408 H 1 RES   0.0000
4957 H 13.3599 -0.477051 14.5861 H 1 RES   0.0000
4958 H -10.6642 5.43523 -5.34207 H 1 RES   0.0000
4959 H 13.639 12.8783 1.76245 H 1 RES   0.0000
4960 H -3.20151 6.96237 -5.13436 H 1 RES   0.0000
4961 H 10.8863 -7.47455 -9.15896 H 1 RES   0.0000
4962 H 5.36811 1.8575 8.0978 H 1 RES   0.0000
4963 H -5.49316 0.32389 -4.6851 H 1 RES   0.0000
4964 H -1.97635 14.2459 13.6143 H 1 RES   0.0000
4965 H -9.6169 10.8124 1.1066 H 1 RES   0.0000
4966 H -12.3185 12.2796 2.97783 H 1 RES   0.0000
4967 H 2.69057 -6.39741 -4.35662 H 1 RES   0.0000
4968 H -6.08565 -9.66204 0.636789 H 1 RES   0.0000
4969 H -0.452449 12.7328 -10.508 H 1 RES   0.0000
4970 H 2.35918 -10.434 -13.7675 H 1 RES   0.0000
4971 H 2.74231 -0.577534 -5.46698 H 1 RES   0.0000
4972 H 5.27619 -4.41884 -3.55742 H 1 RES   0.0000
4973 H 4.74052 14.6001 2.39606 H 1 RES   0.0000
4974 H -1.69181 11.6016 11.9285 H 1 RES   0.0000
4975 H -6.61214 11.6635 -9.89437 H 1 RES   0.0000
4976 H -3.52188 11.405 10.257 H 1 RES   0.0000
4977 H -3.4724 -1.23529 -11.6432 H 1 RES   0.0000
4978 H 9.64178 8.75204 -1.10879 H 1 RES   0.0000
4979 H 11.649 -12.455 0.0334902 H 1 RES   0.0000
4980 H -14.2966 7.90414 13.6314 H 1 RES   0.0000
4981 H -12.9207 -0.76385 2.20885 H 1 RES   0.0000
4982 H -5.0572 -12.6971 -14.2661 H 1 RES   0.0000
4983 H 14.3266 -10.3675 9.35266 H 1 RES   0.0000
4984 H 10.0606 -10.3227 -13.9529 H 1 RES   0.0000
4985 H 14.4096 13.3166 -1.01156 H 1 RES   0.0000
4986 H 8.62395 -12.3085 -8.0871 H 1 RES   0.0000
4987 H 0.0131802 8.1696 2.74326 H 1 RES   0.0000
4988 H -2.08024 -12.3704 -0.264954 H 1 RES   0.0000
4989 H 3.26852 -9.9041 -9.11295 H 1 RES   0.0000
4990 H 8.61101 14.1463 -9.00872 H 1 RES   0.0000
4991 H -10.9716 4.82129 -0.161957 H 1 RES   0.0000
4992 H -4.47027 2.50338 10.106 H 1 RES   0.0000
4993 H 9.94852 0.824505 13.3125 H 1 RES   0.0000
4994 H -3.23684 -1.22827 4.76926 H 1 RES   0.0000
4995 H -13.6648 12.3318 10.0113 H 1 RES   0.0000
4996 H -13.624 -11.8405 -9.67652 H 1 RES   0.0000
4997 H 10.7582 12.1407 -1.13902 H 1 RES   0.0000
4998 H -8.87109 10.7842 8.2897 H 1 RES   0.0000
4999 H -9.18546 -3.0697 6.61951 H 1 RES   0.0000
5000 H 3.76089 8.52505 -1.6283 H 1 RES   0.0000
5001 H 2.25743 -12.6914 6.06655 H 1 RES   0.0000
5002 H -6.83565 0.93951 -13.3471 H 1 RES   0.0000
5003 H -13.3392 -10.3206 5.5329 H 1 RES   0.0000
5004 H 6.37497 1.11509 -1.27264 H 1 RES   0.0000
5005 H 0.060451 6.82368 3.25917 H 1 RES   0.0000
5006 H -5.91959 11.9703 11.7152 H 1 RES   0.0000
5007 H -12.5225 8.41204 -12.4736 H 1 RES   0.0000
5008 H 5.50896 8.90201 -2.02125 H 1 RES   0.0000
5009 H -5.73291 7.94218 -3.42505 H 1 RES   0.0000
5010 H 6.01342 -6.33539 9.95455 H 1 RES   0.0000
5011 H -6.05493 2.49098 14.1401 H 1 RES   0.0000
5012 H -13.3564 13.9852 -3.48971 H 1 RES   0.0000
5013 H -8.59176 -2.14454 8.69134 H 1 RES   0.0000
5014 H 8.92167 9.28141 -9.16499 H 1 RES   0.0000
5015 H 7.99043 -7.95665 8.38974 H 1 RES   0.0000
5016 H 1.59196 -6.74159 4.27988 H 1 RES   0.0000
5017 H 7.10867 -2.30314 -14.3595 H 1 RES   0.0000
5018 H 2.3825 9.07146 3.66841 H 1 RES   0.0000
5019 H -11.4058 -5.54858 -7.71908 H 1 RES   0.0000
5020 H -3.27507 0.634455 -3.79428 H 1 RES   0.0000
5021 H -8.92536 14.2837 4.37167 H 1 RES   0.0000
5022 H -8.75606 -14.3658 -10.3486 H 1 RES   0.0000
5023 H -5.07046 -3.54623 -0.678939 H 1 RES   0.0000
5024 H 12.3543 4.72331 -8.31713 H 1 RES   0.0000
5025 H 10.2013 8.04008 -3.90425 H 1 RES   0.0000
5026 H 10.2917 10.1862 -1.75974 H 1 RES   0.0000
5027 H -3.43416 12.3268 7.16011 H 1 RES   0.0000
5028 H -13.4163 -4.58132 8.0204 H 1 RES   0.0000
5029 H -4.1529 -11.0741 8.71447 H 1 RES   0.0000
5030 H 3.66407 14.4466 8.79776 H 1 RES   0.0000
5031 H -14.8247 -1.79917 0.490993 H 1 RES   0.0000
5032 H -13.8379 1.19857 3.45234 H 1 RES   0.0000
5033 H 11.7777 -5.31923 10.4516 H 1 RES   0.0000
5034 H 2.8728 5.59236 11.504 H 1 RES   0.0000
5035 H 9.07191 -14.0211 -5.85469 H 1 RES   0.0000
5036 H 1.51599 0.441118 -6.72949 H 1 RES   0.0000
5037 H 1.16674 -13.3119 7.57144 H 1 RES   0.0000
5038 H 4.74209 9.08533 7.49553 H 1 RES   0.0000
5039 H 14.1424 4.91175 -12.336 H 1 RES   0.0000
5040 H 11.7016 -14.4737 -6.81472 H 1 RES   0.0000
5041 H 8.18022 -4.01897 -8.94247 H 1 RES   0.0000
5042 H -0.724025 -5.17309 -11.1385 H 1 RES   0.0000
5043 H -3.91086 12.0191 -9.2404 H 1 RES   0.0000
5044 H 0.867572 -11.7027 -14.2396 H 1 RES   0.0000
5045 H -4.69723 7.43175 -9.08211 H 1 RES   0.0000
5046 H 0.646965 -12.5218 -3.07112 H 1 RES   0.0000
5047 H 10.8229 0.897272 -7.34038 H 1 RES   0.0000
5048 H -3.77234 11.7338 0.97372 H 1 RES   0.0000
5049 H 12.833 0.79409 9.05636 H 1 RES   0.0000
5050 H -8.72752 -7.83981 0.793952 H 1 RES   0.0000
5051 H 5.10043 -2.3237 -6.91218 H 1 RES   0.0000
5052 H -11.7292 -3.10103 7.27506 H 1 RES   0.0000
5053 H 11.4765 -13.4155 12.2636 H 1 RES   0.0000
5054 H -10.0256 -0.58327 10.2022 H 1 RES   0.0000
5055 H -5.60467 -5.79936 -10.7258 H 1 RES   0.0000
5056 H -14.2991 4.29959 6.57093 H 1 RES   0.0000
5057 H 12.2524 -2.69433 -4.34861 H 1 RES   0.0000
5058 H -5.33082 6.42975 9.62688 H 1 RES   0.0000
5059 H 12.1564 1.68275 1.26019 H 1 RES   0.0000
5060 H -11.2173 8.94306 -8.37042 H 1 RES   0.0000
5061 H -3.44549 14.583 14.5005 H 1 RES   0.0000
5062 H -12.9137 11.4778 -2.71923 H 1 RES   0.0000
5063 H 7.81762 1.98723 8.83585 H 1 RES   0.0000
5064 H -2.52791 -0.0293442 -0.356806 H 1 RES   0.0000
5065 H 4.43669 13.8242 13.4397 H 1 RES   0.0000
5066 H -10.6097 -9.47576 10.0493 H 1 RES   0.0000
5067 H 3.28098 11.3238 5.21526 H 1 RES   0.0000
5068 H -6.61239 -11.8493 9.72282 H 1 RES   0.0000
5069 H -0.433332 5.02799 5.63902 H 1 RES   0.0000
5070 H -4.16182 -9.2253 -5.82371 H 1 RES   0.0000
5071 H -9.64929 4.16232 3.14766 H 1 RES   0.0000
5072 H 12.2753 8.58703 0.621603 H 1 RES   0.0000
5073 H -5.98491 14.0993 -9.87576 H 1 RES   0.0000
5074 H -2.49602 0.299872 8.48716 H 1 RES   0.0000
5075 H 5.33652 10.4607 -4.6379 H 1 RES   0.0000
5076 H -9.61513 -3.52887 10.577 H 1 RES   0.0000
5077 H 1.15448 -4.24133 -2.10711 H 1 RES   0.0000
5078 H -5.50457 -10.8407 1.61906 H 1 RES   0.0000
5079 H -9.01335 3.7702 -11.4893 H 1 RES   0.0000
5080 H -4.8638 5.88723 -3.66894 H 1 RES   0.0000
5081 H 7.72374 0.69478 2.51042 H 1 RES   0.0000
5082 H 7.87622 -2.65386 -0.495834 H 1 RES   0.0000
5083 H -8.09369 -1.63815 5.36727 H 1 RES   0.0000
5084 H 7.12694 14.823 13.7788 H 1 RES   0.0000
5085 H 6.62083 -0.0214608 -2.08282 H 1 RES   0.0000
5086 H -1.81907 7.34618 -11.2996 H 1 RES   0.0000
5087 H 10.3346 5.38906 -11.6136 H 1 RES   0.0000
5088 H -4.45366 -4.56426 -3.23081 H 1 RES   0.0000
5089 H 6.526 6.95274 8.64475 H 1 RES   0.0000
5090 H 11.3503 -8.44338 -10.2361 H 1 RES   0.0000
5091 H 13.7845 -11.3247 -0.17959 H 1 RES   0.0000
5092 H -10.974 -9.10623 -7.97135 H 1 RES   0.0000
5093 H -12.6076 -5.25687 -0.873211 H 1 RES   0.0000
5094 H -14.5347 14.5253 -1.57862 H 1 RES   0.0000
5095 H -11.3434 -9.37576 -3.61455 H 1 RES   0.0000
5096 H 6.48896 6.95146 -14.6278 H 1 RES   0.0000
5097 H -12.7503 -11.1946 5.94415 H 1 RES   0.0000
5098 H -12.9827 9.05015 -11.7163 H 1 RES   0.0000
5099 H -10.0974 13.3196 -14.8159 H 1 RES   0.0000
5100 H -7.88709 11.6589 1.3366 H 1 RES   0.0000
5101 H -11.8591 1.81268 -11.3445 H 1 RES   0.0000
5102 H -4.81941 -9.86191 2.34063 H 1 RES   0.0000
5103 H 9.79551 12.4564 9.73437 H 1 RES   0.0000
5104 H -7.46846 -3.94828 8.76141 H 1 RES   0.0000
5105 H -9.74473 -11.6531 -9.86278 H 1 RES   0.0000
5106 H -3.04945 -2.74143 -4.36497 H 1 RES   0.0000
5107 H -6.85525 13.528 7.50905 H 1 RES   0.0000
5108 H -0.771427 7.52946 3.14146 H 1 RES   0.0000
5109 H 12.5706 -3.45972 -11.4522 H 1 RES   0.0000
5110 H -1.70544 -0.4716 1.57244 H 1 RES   0.0000
5111 H 9.01737 -4.84963 -0.996886 H 1 RES   0.0000
5112 H 12.1577 -8.62532 0.0206121 H 1 RES   0.0000
5113 H 8.13501 -13.366 14.5322 H 1 RES   0.0000
5114 H 6.70815 -10.769 12.1381 H 1 RES   0.0000
5115 H -11.0241 6.02403 13.2334 H 1 RES   0.0000
5116 H -4.23968 -8.49479 8.60413 H 1 RES   0.0000
5117 H -4.24803 -4.65695 8.08177 H 1 RES   0.0000
5118 H 5.58496 -7.04561 12.7022 H 1 RES   0.0000
5119 H -0.277075 -0.271292 6.02888 H 1 RES   0.0000
5120 H 8.26875 -3.47553 13.3108 H 1 RES   0.0000
5121 H 8.11129 3.40418 8.1095 H 1 RES   0.0000
5122 H 11.0539 -10.6265 13.1831 H 1 RES   0.0000
5123 H 11.648 -14.0848 5.2832 H 1 RES   0.0000
5124 H -9.28261 -9.19936 -10.6894 H 1 RES   0.0000
5125 H -1.1507 -9.40424 -5.99659 H 1 RES   0.0000
5126 H -9.06235 -0.188053 7.40149 H 1 RES   0.0000
5127 H -13.3591 -12.7704 -11.2563 H 1 RES   0.0000
5128 H -1.70895 13.0831 12.9732 H 1 RES   0.0000
5129 H -8.35038 11.1999 -9.61438 H 1 RES   0.0000
5130 H -9.07302 -5.38055 -10.1026 H 1 RES   0.0000
5131 H 5.00146 6.34019 -10.5277 H 1 RES   0.0000
5132 H 2.23755 7.15733 -3.99856 H 1 RES   0.0000
5133 H 0.64721 12.2786 -14.2231 H 1 RES   0.0000
5134 H -14.4363 -6.19184 13.1475 H 1 RES   0.0000
5135 H 14.6297 -0.627036 -3.38828 H 1 RES   0.0000
5136 H -1.45221 -6.74099 -1.58902 H 1 RES   0.0000
5137 H -13.065 -7.65104 10.1369 H 1 RES   0.0000
5138 H 12.5984 -12.8932 0.858782 H 1 RES   0.0000
5139 H -2.27891 -12.9519 -3.19784 H 1 RES   0.0000
5140 H 4.9649 7.64562 3.22522 H 1 RES   0.0000
5141 H -2.80909 -1.89053 -0.398588 H 1 RES   0.0000
5142 H 10.7936 -7.20935 -7.03918 H 1 RES   0.0000
5143 H -5.29768 -13.5689 -1.61967 H 1 RES   0.0000
5144 H 2.71869 -12.0508 1.58132 H 1 RES   0.0000
5145 H -7.83303 -12.6215 -8.95603 H 1 RES   0.0000
5146 H 9.85124 2.92302 12.3242 H 1 RES   0.0000
5147 H -12.4761 4.6995 2.835 H 1 RES   0.0000
5148 H -4.06568 7.15903 11.3984 H 1 RES   0.0000
5149 H -7.43873 -13.3999 -11.9704 H 1 RES   0.0000
5150 H -6.77034 8.30251 9.52973 H 1 RES   0.0000
5151 H 5.57748 -0.060451 6.76584 H 1 RES   0.0000
5152 H -10.1409 -9.44426 10.9817 H 1 RES   0.0000
5153 H 2.46427 -4.63136 -1.34277 H 1 RES   0.0000
5154 H 1.76159 10.5502 8.79837 H 1 RES   0.0000
5155 H -2.67143 -2.24958 12.001 H 1 RES   0.0000
5156 H -4.47927 -2.38805 11.3248 H 1 RES   0.0000
5157 H 11.7329 0.254727 -4.30677 H 1 RES   0.0000
5158 H 11.309 10.9649 4.41475 H 1 RES   0.0000
5159 H 12.24 -7.83673 6.00692 H 1 RES   0.0000
5160 H -11.4572 4.61455 6.32269 H 1 RES   0.0000
5161 H -7.69316 -8.40073 -5.54431 H 1 RES   0.0000
5162 H 13.0641 -3.32784 1.9335 H 1 RES   0.0000
5163 H 10.7252 10.0449 -2.91246 H 1 RES   0.0000
5164 H -4.00611 -8.43833 -2.31953 H 1 RES   0.0000
5165 H -7.6842 -10.0561 14.001 H 1 RES   0.0000
5166 H 12.1169 -10.1821 12.6477 H 1 RES   0.0000
5167 H 3.44381 -5.07063 -9.49368 H 1 RES   0.0000
5168 H -8.92136 -11.6835 6.97828 H 1 RES   0.0000
5169 H 0.824408 9.78091 -2.44315 H 1 RES   0.0000
5170 H 14.5126 -5.47671 9.35423 H 1 RES   0.0000
5171 H -7.95184 11.1051 9.01523 H 1 RES   0.0000
5172 H -1.13881 5.42753 11.0171 H 1 RES   0.0000
5173 H -7.75125 0.94107 1.09233 H 1 RES   0.0000
5174 H 3.76128 -4.65469 -10.8384 H 1 RES   0.0000
5175 H 2.48049 11.3998 -5.68834 H 1 RES   0.0000
5176 H -2.59553 14.5408 -6.1395 H 1 RES   0.0000
5177 H -12.4947 7.33968 8.69401 H 1 RES   0.0000
5178 H -2.8975 -3.31457 -11.8623 H 1 RES   0.0000
5179 H -9.49539 -9.04857 -13.0691 H 1 RES   0.0000
5180 H 1.75726 0.523122 -12.2135 H 1 RES   0.0000
5181 H 3.05666 -0.26364 10.5564 H 1 RES   0.0000
5182 H -13.0569 9.36218 -5.26969 H 1 RES   0.0000
5183 H -14.079 -10.4662 -8.81367 H 1 RES   0.0000
5184 H -2.08191 6.30365 13.3761 H 1 RES   0.0000
5185 H -3.21009 7.27556 6.5184 H 1 RES   0.0000
5186 H 9.51798 -13.7233 -11.0684 H 1 RES   0.0000
5187 H -5.80663 -13.2566 -7.03771 H 1 RES   0.0000
5188 H 4.82519 -5.57544 12.3856 H 1 RES   0.0000
5189 H -2.02881 7.46616 10.9789 H 1 RES   0.0000
5190 H -4.40472 3.1517 -14.0735 H 1 RES   0.0000
5191 H -5.55645 10.2041 8.23102 H 1 RES   0.0000
5192 H 12.7927 13.352 10.4509 H 1 RES   0.0000
5193 H -4.82504 12.1783 -13.8208 H 1 RES   0.0000
5194 H -1.43869 7.66221 13.3818 H 1 RES   0.0000
5195 H -10.2043 -11.8823 6.7068 H 1 RES   0.0000
5196 H -3.33871 -4.37424 -10.8194 H 1 RES   0.0000
5197 H 0.0853221 3.68688 -13.6792 H 1 RES   0.0000
5198 H -4.47122 6.44981 14.3825 H 1 RES   0.0000
5199 H 0.276057 6.7677 -8.67511 H 1 RES   0.0000
5200 H 7.27159 14.6639 -12.9674 H 1 RES   0.0000
5201 H -12.4677 9.31532 9.66241 H 1 RES   0.0000
5202 H -6.62683 11.5123 10.4863 H 1 RES   0.0000
5203 H 6.55425 -11.8908 -4.10062 H 1 RES   0.0000
5204 H -6.45617 -7.70172 11.0473 H 1 RES   0.0000
5205 H 7.40425 -9.40052 -1.55727 H 1 RES   0.0000
5206 H 3.21231 7.88902 -0.258235 H 1 RES   0.0000
5207 H 1.57638 -3.02567 -5.71207 H 1 RES   0.0000
5208 H 11.2827 2.24164 -4.01337 H 1 RES   0.0000
5209 H -2.73377 13.8411 4.33095 H 1 RES   0.0000
5210 H 3.18827 -13.4445 -13.392 H 1 RES   0.0000
5211 H 7.49619 -11.0033 -4.22065 H 1 RES   0.0000
5212 H 12.3126 4.10727 -7.35298 H 1 RES   0.0000
5213 H 0.309113 8.50827 -2.69134 H 1 RES   0.0000
5214 H -1.46165 5.04155 8.68954 H 1 RES   0.0000
5215 H -11.0187 2.51433 -10.4833 H 1 RES   0.0000
5216 H -2.18438 9.66009 1.40862 H 1 RES   0.0000
5217 H -3.93003 8.16357 1.78546 H 1 RES   0.0000
5218 H -5.93113 -4.97312 -7.39814 H 1 RES   0.0000
5219 H -14.0899 -10.9887 14.2689 H 1 RES   0.0000
5220 H 13.3474 -13.5128 -10.8023 H 1 RES   0.0000
5221 H 6.42722 -8.02488 8.84469 H 1 RES   0.0000
5222 H -12.9379 10.7074 -6.4094 H 1 RES   0.0000
5223 H -14.1359 -13.4086 -8.28699 H 1 RES   0.0000
5224 H 11.928 3.16081 -0.00546149 H 1 RES   0.0000
5225 H 3.79589 7.41383 -9.57007 H 1 RES   0.0000
5226 H -9.51457 5.35514 3.51617 H 1 RES   0.0000
5227 H 0.364038 -9.36583 3.15744 H 1 RES   0.0000
5228 H 2.88311 3.23376 -4.29234 H 1 RES   0.0000
5229 H 6.57331 2.86736 3.99295 H 1 RES   0.0000
5230 H 1.30239 14.068 14.5871 H 1 RES   0.0000
5231 H -7.93739 -6.29472 -1.83302 H 1 RES   0.0000
5232 H 5.03686 -8.56446 1.94568 H 1 RES   0.0000
5233 H -6.25277 6.73969 -11.0975 H 1 RES   0.0000
5234 H 2.4757 -6.85633 -5.89054 H 1 RES   0.0000
5235 H -6.44925 12.6273 -8.58986 H 1 RES   0.0000
5236 H 14.2137 -13.6088 -8.58178 H 1 RES   0.0000
5237 H -4.7222 -0.606255 -3.05263 H 1 RES   0.0000
5238 H 0.462102 -2.69194 -9.42222 H 1 RES   0.0000
5239 H 2.71395 -7.78702 12.616 H 1 RES   0.0000
5240 H 9.05095 13.7843 10.5775 H 1 RES   0.0000
5241 H -3.64294 13.0592 -8.00648 H 1 RES   0.0000
5242 H -1.052 13.5419 5.81286 H 1 RES   0.0000
5243 H -9.94674 13.3071 1.43018 H 1 RES   0.0000
5244 H 4.36243 4.28704 13.1028 H 1 RES   0.0000
5245 H -8.14631 -1.03029 6.4646 H 1 RES   0.0000
5246 H -10.1685 -14.648 -13.3161 H 1 RES   0.0000
5247 H -13.0657 9.13871 -4.1225 H 1 RES   0.0000
5248 H 7.41538 -7.18038 -12.3903 H 1 RES   0.0000
5249 H 12.2253 13.1385 11.4968 H 1 RES   0.0000
5250 H -14.7057 -12.4099 5.57786 H 1 RES   0.0000
5251 H 4.5365 -6.40827 -4.42491 H 1 RES   0.0000
5252 H -0.605035 8.37082 12.6303 H 1 RES   0.0000
5253 H -11.3709 12.0287 -5.47258 H 1 RES   0.0000
5254 H -11.966 -11.4064 7.35151 H 1 RES   0.0000
5255 H 1.63288 12.9952 -8.32631 H 1 RES   0.0000
5256 H 12.4657 -1.78646 -3.54134 H 1 RES   0.0000
5257 H 13.4632 1.50348 -9.06223 H 1 RES   0.0000
5258 H 11.5629 3.94944 5.09561 H 1 RES   0.0000
5259 H 7.69021 -1.81563 -13.4632 H 1 RES   0.0000
5260 H -2.50613 13.6139 -14.0588 H 1 RES   0.0000
5261 H -13.9535 -5.50811 -11.122 H 1 RES   0.0000
5262 H 11.7947 -6.17015 -6.04999 H 1 RES   0.0000
5263 H 14.4536 -4.83782 -6.4964 H 1 RES   0.0000
5264 H -10.6823 14.7987 -2.41699 H 1 RES   0.0000
5265 H -11.4114 -10.1483 1.88102 H 1 RES   0.0000
5266 H 0.530464 14.3651 -6.48782 H 1 RES   0.0000
5267 H -5.08427 14.092 -3.41242 H 1 RES   0.0000
5268 H -5.48745 14.231 -13.042 H 1 RES   0.0000
5269 H 2.51775 -8.90721 0.341923 H 1 RES   0.0000
5270 H -10.9916 -4.10238 7.2441 H 1 RES   0.0000
5271 H 4.15263 -6.4526 10.1817 H 1 RES   0.0000
5272 H -3.17591 -7.12817 11.5019 H 1 RES   0.0000
5273 H -5.70892 -3.16885 -9.85725 H 1 RES   0.0000
5274 H -2.95903 12.5544 -11.7093 H 1 RES   0.0000
5275 H -5.57677 10.5585 13.3408 H 1 RES   0.0000
5276 H -9.97185 13.5415 -2.56247 H 1 RES   0.0000
5277 H -4.65615 -10.4444 -11.3658 H 1 RES   0.0000
5278 H 10.2992 10.4517 -14.489 H 1 RES   0.0000
5279 H -9.86594 12.3011 6.97607 H 1 RES   0.0000
5280 H 5.77759 -8.48931 -12.2732 H 1 RES   0.0000
5281 H -1.15317 6.48556 -3.70641 H 1 RES   0.0000
5282 H 14.2171 8.84553 -4.82352 H 1 RES   0.0000
5283 H 8.50411 3.99031 7.19684 H 1 RES   0.0000
5284 H -9.32428 -12.3593 12.4792 H 1 RES   0.0000
5285 H 13.5082 -9.47251 -11.7066 H 1 RES   0.0000
5286 H 11.5581 4.93319 9.04815 H 1 RES   0.0000
5287 H -14.2267 0.20181 -12.9945 H 1 RES   0.0000
5288 H 8.91074 -10.6817 -7.7265 H 1 RES   0.0000
5289 H -3.41561 -14.4615 -7.40584 H 1 RES   0.0000
5290 H 8.90514 6.57185 5.69557 H 1 RES   0.0000
5291 H 12.088 -14.202 13.5462 H 1 RES   0.0000
5292 H -3.51916 -1.06464 12.8024 H 1 RES   0.0000
5293 H -13.7405 -3.42947 8.21242 H 1 RES   0.0000
5294 H 5.11417 -4.57145 2.60278 H 1 RES   0.0000
5295 H 1.07394 -5.05125 -14.2715 H 1 RES   0.0000
5296 H -4.35001 -14.7629 -2.25528 H 1 RES   0.0000
5297 H 5.12641 -13.2944 1.15488 H 1 RES   0.0000
5298 H -4.03015 -3.42068 -1.49665 H 1 RES   0.0000
5299 H -5.72473 -4.9038 -3.26994 H 1 RES   0.0000
5300 H 13.4951 -9.75494 -10.5414 H 1 RES   0.0000
5301 H 12.8534 3.83483 -2.49654 H 1 RES   0.0000
5302 H -1.15705 -14.206 10.2796 H 1 RES   0.0000
5303 H -8.70173 -2.5334 -13.9801 H 1 RES   0.0000
5304 H 12.8323 -5.56439 8.64942 H 1 RES   0.0000
5305 H 10.286 -1.48339 14.4204 H 1 RES   0.0000
5306 H -11.766 9.67229 1.71011 H 1 RES   0.0000
5307 H 3.30834 -9.96906 -13.6662 H 1 RES   0.0000
5308 H 4.0896 -1.55791 -1.23939 H 1 RES   0.0000
5309 H -10.6554 4.99156 -14.6848 H 1 RES   0.0000
5310 H -6.5633 -9.71196 14.0877 H 1 RES   0.0000
5311 H -1.18051 -13.4217 9.15349 H 1 RES   0.0000
5312 H -9.81818 -4.65614 -12.4216 H 1 RES   0.0000
5313 H -13.2252 8.59727 8.80306 H 1 RES   0.0000
5314 H 5.49099 -2.75643 -2.33699 H 1 RES   0.0000
5315 H -12.9637 -2.6346 -9.49508 H 1 RES   0.0000
5316 H 13.4226 -13.346 -4.80884 H 1 RES   0.0000
5317 H 11.6231 8.63443 -7.81218 H 1 RES   0.0000
5318 H -8.22938 -8.56915 14.0861 H 1 RES   0.0000
5319 H 4.60923 9.6635 -4.68637 H 1 RES   0.0000
5320 H 0.915695 -0.461366 13.2833 H 1 RES   0.0000
5321 H 2.57051 2.0617 -4.32988 H 1 RES   0.0000
5322 H 1.7599 -9.29877 -6.16012 H 1 RES   0.0000
5323 H 1.9268 -5.47137 -6.30113 H 1 RES   0.0000
5324 H 7.75745 -7.91494 13.5954 H 1 RES   0.0000
5325 H 8.70035 6.68169 3.06839 H 1 RES   0.0000
5326 H -9.56732 -2.74462 -9.32257 H 1 RES   0.0000
5327 H -1.33003 8.3527 9.34996 H 1 RES   0.0000
5328 H -7.4378 10.9666 3.7129 H 1 RES   0.0000
5329 H 6.25078 4.74695 -12.7755 H 1 RES   0.0000
5330 H -3.26157 -0.895706 -3.99087 H 1 RES   0.0000
5331 H -3.71376 0.834211 -0.198271 H 1 RES   0.0000
5332 H -14.4303 10.2657 1.76621 H 1 RES   0.0000
5333 H 10.962 -6.32718 -9.79992 H 1 RES   0.0000
5334 H -6.94022 -4.48462 -11.2635 H 1 RES   0.0000
5335 H -1.61415 -7.29967 -0.625853 H 1 RES   0.0000
5336 H 14.6416 -8.67275 -12.5397 H 1 RES   0.0000
5337 H -1.75284 -3.44632 1.74815 H 1 RES   0.0000
5338 H -8.60393 -12.3415 13.27 H 1 RES   0.0000
5339 H -4.56921 10.2568 2.6933 H 1 RES   0.0000
5340 H -5.8064 6.34939 8.61081 H 1 RES   0.0000
5341 H 7.18361 3.36804 -1.3562 H 1 RES   0.0000
5342 H 4.25441 -11.8212 -13.1694 H 1 RES   0.0000
5343 H -7.38147 11.7495 -8.97549 H 1 RES   0.0000
5344 H 7.18931 -11.7923 -5.3687 H 1 RES   0.0000
5345 H -12.5419 -3.79232 8.11167 H 1 RES   0.0000
5346 H 0.508183 -5.282 0.0663942 H 1 RES   0.0000
5347 H 3.39949 -11.7363 -9.79068 H 1 RES   0.0000
5348 H 0.118983 0.310593 -14.3866 H 1 RES   0.0000
5349 H -0.201248 -4.56585 9.03761 H 1 RES   0.0000
5350 H 8.99297 12.1371 -0.718481 H 1 RES   0.0000
5351 H -7.7285 12.0912 11.9685 H 1 RES   0.0000
5352 H -12.3958 -5.20701 11.5807 H 1 RES   0.0000
5353 H -4.13013 -13.8732 -10.6855 H 1 RES   0.0000
5354 H 3.28693 -14.5019 4.06291 H 1 RES   0.0000
5355 H 10.229 0.751973 -8.66212 H 1 RES   0.0000
5356 H -2.12807 -6.94692 -6.98939 H 1 RES   0.0000
5357 H 2.67995 5.76839 10.3824 H 1 RES   0.0000
5358 H 5.1542 2.62094 12.37 H 1 RES   0.0000
5359 H -14.1276 -10.8454 -4.33773 H 1 RES   0.0000
5360 H -0.0278792 2.8048 12.1388 H 1 RES   0.0000
5361 H -11.4217 3.01534 11.4895 H 1 RES   0.0000
5362 H 3.58496 9.69269 1.84177 H 1 RES   0.0000
5363 H 4.28739 0.0550114 4.02593 H 1 RES   0.0000
5364 H -1.15238 4.13614 5.67717 H 1 RES   0.0000
5365 H -8.53895 -7.24823 -8.90833 H 1 RES   0.0000
5366 H -5.89055 6.91407 -6.08706 H 1 RES   0.0000
5367 H 12.9762 5.47553 -5.30102 H 1 RES   0.0000
5368 H -9.39928 -0.987514 -9.19786 H 1 RES   0.0000
5369 H -3.02968 7.55049 3.21344 H 1 RES   0.0000
5370 H -9.88421 -7.11498 -2.22031 H 1 RES   0.0000
5371 H -2.90728 9.41925 -4.92391 H 1 RES   0.0000
5372 H -6.48648 -2.51004 -3.30131 H 1 RES   0.0000
5373 H -7.77008 -9.80219 7.62839 H 1 RES   0.0000
5374 H 0.0930794 2.37861 8.95544 H 1 RES   0.0000
5375 H 13.4126 1.55472 -11.3001 H 1 RES   0.0000
5376 H -10.4812 3.23921 -12.0889 H 1 RES   0.0000
5377 H -10.9071 -8.19974 -9.17401 H 1 RES   0.0000
5378 H 10.9876 -7.12345 -8.06509 H 1 RES   0.0000
5379 H 14.5185 9.84033 -5.32075 H 1 RES   0.0000
5380 H -2.39569 -6.93798 -2.45706 H 1 RES   0.0000
5381 H -13.4186 13.0331 -5.7595 H 1 RES   0.0000
5382 H 5.56458 10.1156 14.21 H 1 RES   0.0000
5383 H 3.67056 -10.4518 -5.80804 H 1 RES   0.0000
5384 H -0.474694 10.7365 -6.19246 H 1 RES   0.0000
5385 H -12.9755 13.8784 12.599 H 1 RES   0.0000
5386 H -7.41477 -14.8413 -12.9219 H 1 RES   0.0000
5387 H 2.02582 -2.39273 -10.0002 H 1 RES   0.0000
5388 H 1.67188 -3.24108 8.48485 H 1 RES   0.0000
5389 H 3.6045 -8.68331 -14.2157 H 1 RES   0.0000
5390 H -2.0618 10.6273 13.7342 H 1 RES   0.0000
5391 H 4.19781 0.428441 -0.346885 H 1 RES   0.0000
5392 H 1.55913 -13.8818 8.42605 H 1 RES   0.0000
5393 H -11.6947 10.649 -4.99448 H 1 RES   0.0000
5394 H 13.3743 -1.63675 7.04903 H 1 RES   0.0000
5395 H -8.94511 5.06744 -7.89438 H 1 RES   0.0000
5396 H 7.45801 -2.92015 -3.12527 H 1 RES   0.0000
5397 H -12.5094 12.9589 12.3474 H 1 RES   0.0000
5398 H -9.77467 -13.3719 4.98437 H 1 RES   0.0000
5399 H 1.96688 -7.43895 -1.32008 H 1 RES   0.0000
5400 H 12.8367 -3.58731 13.461 H 1 RES   0.0000
5401 H -7.29008 8.27462 0.461587 H 1 RES   0.0000
5402 H -14.5152 5.70151 -4.69813 H 1 RES   0.0000
5403 H 13.9615 13.8365 6.58837 H 1 RES   0.0000
5404 H -8.72775 -11.78 -11.7984 H 1 RES   0.0000
5405 H -11.7621 12.9625 -13.086 H 1 RES   0.0000
5406 H 4.75886 10.247 3.71281 H 1 RES   0.0000
5407 H -14.8459 7.47244 14.7649 H 1 RES   0.0000
5408 H 8.61462 -12.1954 13.8139 H 1 RES   0.0000
5409 H -13.6889 6.99078 -12.1274 H 1 RES   0.0000
5410 H 14.2432 3.34111 -3.04917 H 1 RES   0.0000
5411 H -5.41198 8.09697 11.2831 H 1 RES   0.0000
5412 H 12.8464 10.5151 -0.807138 H 1 RES   0.0000
5413 H -14.4757 -1.22633 -11.8825 H 1 RES   0.0000
5414 H -3.59383 -3.71313 1.95815 H 1 RES   0.0000
5415 H -11.3698 11.9326 4.63316 H 1 RES   0.0000
5416 H 12.7354 6.4422 -11.0349 H 1 RES   0.0000
5417 H 12.6121 -9.28661 -2.39612 H 1 RES   0.0000
5418 H 13.3199 -7.35673 -11.5745 H 1 RES   0.0000
5419 H 10.9713 -1.29058 -13.0069 H 1 RES   0.0000
5420 H -3.72078 11.0138 7.1942 H 1 RES   0.0000
5421 H 14.0758 -4.70401 -8.47411 H 1 RES   0.0000
5422 H 1.69612 -10.6447 11.5034 H 1 RES   0.0000
5423 H -2.11437 10.4913 7.54079 H 1 RES   0.0000
5424 H -13.8564 -12.6392 -8.97112 H 1 RES   0.0000
5425 H 4.07334 14.1706 9.71741 H 1 RES   0.0000
5426 H 1.67594 -6.34634 -5.147 H 1 RES   0.0000
5427 H -12.2298 -13.3199 9.16397 H 1 RES   0.0000
5428 H 6.12287 -8.09181 -11.0981 H 1 RES   0.0000
5429 H 2.58045 11.425 13.1189 H 1 RES   0.0000
5430 H -13.5541 9.94398 -3.51799 H 1 RES   0.0000
5431 H 14.6776 8.27672 5.72195 H 1 RES   0.0000
5432 H 9.94639 12.8128 13.5884 H 1 RES   0.0000
5433 H -10.0945 11.4408 5.26825 H 1 RES   0.0000
5434 H 6.28429 1.83201 1.12283 H 1 RES   0.0000
5435 H -10.7785 -6.69467 1.08299 H 1 RES   0.0000
5436 H 12.9236 -0.759588 -1.96184 H 1 RES   0.0000
5437 H 12.0291 4.27112 -4.467 H 1 RES   0.0000
5438 H -7.48406 6.46408 12.0018 H 1 RES   0.0000
5439 H 2.94987 13.7111 2.82978 H 1 RES   0.0000
5440 H 6.10213 13.1651 4.09861 H 1 RES   0.0000
5441 H 9.82489 0.110591 -0.940648 H 1 RES   0.0000
5442 H 4.47414 2.09632 11.7312 H 1 RES   0.0000
5443 H -14.837 11.1214 13.3872 H 1 RES   0.0000
5444 H -13.1437 13.1164 -4.40833 H 1 RES   0.0000
5445 H -13.5054 10.8049 2.09954 H 1 RES   0.0000
5446 H 9.10534 10.9666 -11.2163 H 1 RES   0.0000
5447 H 1.24616 -6.85859 -3.2103 H 1 RES   0.0000
5448 H 1.28496 4.96824 8.59313 H 1 RES   0.0000
5449 H -9.55778 -10.8086 9.56594 H 1 RES   0.0000
5450 H 11.1635 11.246 -10.3189 H 1 RES   0.0000
5451 H -2.45269 -7.2146 1.08729 H 1 RES   0.0000
5452 H -9.59749 -2.14502 6.28895 H 1 RES   0.0000
5453 H -3.30372 7.20949 -7.76155 H 1 RES   0.0000
5454 H -5.55779 1.56492 -13.2132 H 1 RES   0.0000
5455 H -7.79233 11.9589 -7.18161 H 1 RES   0.0000
5456 H 0.827805 -0.703418 -1.25737 H 1 RES   0.0000
5457 H -9.21117 14.4455 0.513902 H 1 RES   0.0000
5458 H -2.6716 2.14323 2.04064 H 1 RES   0.0000
5459 H 4.35283 7.43109 5.86947 H 1 RES   0.0000
5460 H -8.84454 -8.42916 7.30139 H 1 RES   0.0000
5461 H 3.01287 7.2604 11.6679 H 1 RES   0.0000
5462 H 2.67054 -10.5159 -0.398926 H 1 RES   0.0000
5463 H -5.48572 5.38809 14.3985 H 1 RES   0.0000
5464 H -14.8395 11.4039 -8.02067 H 1 RES   0.0000
5465 H -10.4948 5.36799 10.4488 H 1 RES   0.0000
5466 H -1.13652 -5.8933 12.2313 H 1 RES   0.0000
5467 H -6.2874 13.1211 -2.11484 H 1 RES   0.0000
5468 H -4.89274 3.96746 6.83435 H 1 RES   0.0000
5469 H -5.80294 -14.5164 5.28302 H 1 RES   0.0000
5470 H 12.7736 -4.87296 5.72928 H 1 RES   0.0000
5471 H -8.11269 11.4385 10.0432 H 1 RES   0.0000
5472 H -2.2543 -5.8341 12.7741 H 1 RES   0.0000
5473 H -0.293693 5.19376 -2.94051 H 1 RES   0.0000
5474 H 9.15693 -14.2407 -8.04718 H 1 RES   0.0000
5475 H 9.86697 -13.6184 -3.61974 H 1 RES   0.0000
5476 H 2.83254 14.4045 3.60251 H 1 RES   0.0000
5477 H 10.5078 3.41172 0.0491429 H 1 RES   0.0000
5478 H -10.5067 4.95302 1.70389 H 1 RES   0.0000
5479 H 13.5756 13.0808 -14.5909 H 1 RES   0.0000
5480 H -13.7717 5.09099 -10.1633 H 1 RES   0.0000
5481 H 12.0115 -10.7455 -3.43857 H 1 RES   0.0000
5482 H -0.0713744 1.49003 13.0424 H 1 RES   0.0000
5483 H -11.8083 12.1658 12.5894 H 1 RES   0.0000
5484 H -7.52604 -5.39941 3.19822 H 1 RES   0.0000
5485 H -6.56652 1.34134 0.913238 H 1 RES   0.0000
5486 H 0.900083 -7.91797 7.85135 H 1 RES   0.0000
5487 H 14.4643 -8.14162 4.24493 H 1 RES   0.0000
5488 H 14.4647 11.2925 -10.6789 H 1 RES   0.0000
5489 H 5.13947 -7.45043 -6.23087 H 1 RES   0.0000
5490 H 11.2404 6.7608 14.7785 H 1 RES   0.0000
5491 H -10.7224 9.79119 -5.56193 H 1 RES   0.0000
5492 H 1.75465 11.5901 3.81224 H 1 RES   0.0000
5493 H -14.7026 14.5998 5.18743 H 1 RES   0.0000
5494 H 9.44689 4.80464 3.81934 H 1 RES   0.0000
5495 H -4.08829 1.10595 13.0132 H 1 RES   0.0000
5496 H -10.5702 -10.9535 -7.88427 H 1 RES   0.0000
5497 H -8.08414 -14.756 13.0363 H 1 RES   0.0000
5498 H -8.78754 -5.94766 8.95715 H 1 RES   0.0000
5499 H 13.4508 -3.94591 -11.7207 H 1 RES   0.0000
5500 H -7.48689 -5.69699 11.2316 H 1 RES   0.0000
5501 H 14.6237 14.3619 -11.9494 H 1 RES   0.0000
5502 H -7.70691 -5.86805 8.8463 H 1 RES   0.0000
5503 H -14.6288 1.93499 9.76995 H 1 RES   0.0000
5504 H -4.6765 -2.62661 14.0202 H 1 RES   0.0000
5505 H -8.90907 13.6032 2.58814 H 1 RES   0.0000
5506 H -14.8376 -4.87306 6.16551 H 1 RES   0.0000
5507 H -7.65936 -14.2096 9.43319 H 1 RES   0.0000
5508 H 10.394 -5.69696 0.77326 H 1 RES   0.0000
5509 H 4.02922 -8.06938 -1.36553 H 1 RES   0.0000
5510 H -11.62 -2.08719 -8.29284 H 1 RES   0.0000
5511 H -0.18546 -11.897 1.86515 H 1 RES   0.0000
5512 H 8.48979 0.772246 -7.49358 H 1 RES   0.0000
5513 H 10.2559 -9.57676 12.3566 H 1 RES   0.0000
5514 H -4.94984 -7.99707 -10.3911 H 1 RES   0.0000
5515 H 9.96341 11.1025 -11.7438 H 1 RES   0.0000
5516 H -7.61907 -9.10732 -7.026 H 1 RES   0.0000
5517 H -9.32702 -14.2787 7.84137 H 1 RES   0.0000
5518 H -11.348 2.2553 10.5359 H 1 RES   0.0000
5519 H 13.8186 -9.33499 8.14663 H 1 RES   0.0000
5520 H -9.53014 7.98101 2.10163 H 1 RES   0.0000
5521 H -9.72297 14.1977 13.2784 H 1 RES   0.0000
5522 H -2.41659 -14.5339 -8.67802 H 1 RES   0.0000
5523 H 14.3078 -11.2044 -13.7143 H 1 RES   0.0000
5524 H -6.53475 -1.71786 3.99676 H 1 RES   0.0000
5525 H -12.1859 3.51347 -10.1377 H 1 RES   0.0000
5526 H -4.10731 -1.68413 -4.16986 H 1 RES   0.0000
5527 H -14.2574 3.27263 -8.58437 H 1 RES   0.0000
5528 H -0.0660317 -7.79105 -13.8413 H 1 RES   0.0000
5529 H -5.58629 10.9201 12.1775 H 1 RES   0.0000
5530 H -10.2147 13.1618 -5.61187 H 1 RES   0.0000
5531 H 8.11017 -10.6659 -1.55815 H 1 RES   0.0000
5532 H -3.68311 3.0419 -2.35237 H 1 RES   0.0000
5533 H 6.76353 12.5644 1.91855 H 1 RES   0.0000
5534 H 1.5009 10.9016 -6.39471 H 1 RES   0.0000
5535 H 9.78457 3.8819 10.6588 H 1 RES   0.0000
5536 H -11.2479 3.27476 -4.43287 H 1 RES   0.0000
5537 H -13.6767 9.10363 -10.7882 H 1 RES   0.0000
5538 H 8.64578 7.53531 10.3775 H 1 RES   0.0000
5539 H -6.61891 13.6424 -2.93831 H 1 RES   0.0000
5540 H -0.640598 -14.7878 1.14424 H 1 RES   0.0000
5541 H 0.369049 -4.15359 -1.48719 H 1 RES   0.0000
5542 H -14.0422 9.30435 12.8188 H 1 RES   0.0000
5543 H -9.67639 12.3418 -10.4317 H 1 RES   0.0000
5544 H -5.22564 -4.14991 -10.278 H 1 RES   0.0000
5545 H -14.6184 -4.207 -5.68144 H 1 RES   0.0000
5546 H 6.69677 -4.32484 10.2155 H 1 RES   0.0000
5547 H -6.61525 -0.435455 -12.6191 H 1 RES   0.0000
5548 H 11.8619 -2.62632 8.10101 H 1 RES   0.0000
5549 H -9.52958 -6.44196 -11.7224 H 1 RES   0.0000
5550 H 5.02776 -8.81804 -6.37344 H 1 RES   0.0000
5551 H -9.56944 -9.39302 -6.69149 H 1 RES   0.0000
5552 H -12.3868 7.54503 -8.59463 H 1 RES   0.0000
5553 H 1.20044 6.97866 -2.24507 H 1 RES   0.0000
5554 H 5.56161 -14.0006 -9.39099 H 1 RES   0.0000
5555 H -3.91773 6.74222 -1.90496 H 1 RES   0.0000
5556 H 12.2392 8.12124 -3.62474 H 1 RES   0.0000
5557 H 9.65237 -7.07642 9.53172 H 1 RES   0.0000
5558 H -5.14677 13.4722 -14.3512 H 1 RES   0.0000
5559 H 9.22103 -11.1838 -6.53869 H 1 RES   0.0000
5560 H -3.07918 10.3114 1.88752 H 1 RES   0.0000
5561 H -13.998 -1.20179 11.5188 H 1 RES   0.0000
5562 H 9.06564 10.2353 -2.52144 H 1 RES   0.0000
5563 H -10.6293 13.1817 7.92059 H 1 RES   0.0000
5564 H -0.444184 -6.63937 -3.92113 H 1 RES   0.0000
5565 H 2.22358 3.70434 1.76526 H 1 RES   0.0000
5566 H 14.6478 -14.428 3.61416 H 1 RES   0.0000
5567 H 10.8019 -0.317013 11.853 H 1 RES   0.0000
5568 H -2.13054 4.21684 -13.7625 H 1 RES   0.0000
5569 H 10.975 -6.82208 -0.898212 H 1 RES   0.0000
5570 H -8.09406 6.33547 7.32521 H 1 RES   0.0000
5571 H -5.52742 1.48073 -10.9656 H 1 RES   0.0000
5572 H 1.25575 -1.92407 -7.38513 H 1 RES   0.0000
5573 H 8.65267 12.7918 8.95711 H 1 RES   0.0000
5574 H 14.0532 7.57151 -6.43955 H 1 RES   0.0000
5575 H -9.69836 2.83138 9.28021 H 1 RES   0.0000
5576 H 0.0488778 13.9185 -2.83252 H 1 RES   0.0000
5577 H -4.93272 1.62234 -3.03508 H 1 RES   0.0000
5578 H 7.61592 12.7416 14.2584 H 1 RES   0.0000
5579 H -0.604388 -7.72495 12.2987 H 1 RES   0.0000
5580 H 13.9115 -7.68312 -12.6179 H 1 RES   0.0000
5581 H -9.68243 5.88181 9.06889 H 1 RES   0.0000
5582 H 13.4082 9.68752 2.41723 H 1 RES   0.0000
5583 H 8.18563 9.52944 4.07225 H 1 RES   0.0000
5584 H 3.152 14.3698 5.25527 H 1 RES   0.0000
5585 H 2.37187 12.8666 -7.13658 H 1 RES   0.0000
5586 H -3.31101 11.0081 -9.36304 H 1 RES   0.0000
5587 H 0.981709 -0.474322 14.8408 H 1 RES   0.0000
5588 H 13.7846 7.11386 1.65342 H 1 RES   0.0000
5589 H 7.33923 12.1297 -2.67061 H 1 RES   0.0000
5590 H 3.82533 -6.85569 -14.7719 H 1 RES   0.0000
5591 H -0.137908 2.18955 -13.6969 H 1 RES   0.0000
5592 H 0.724044 12.5898 -9.34282 H 1 RES   0.0000
5593 H 8.9759 -0.749507 -9.49652 H 1 RES   0.0000
5594 H -14.3497 3.54756 5.20256 H 1 RES   0.0000
5595 H -12.3594 -9.59092 -7.39593 H 1 RES   0.0000
5596 H -5.78348 0.513053 -1.88845 H 1 RES   0.0000
5597 H 3.00454 8.31858 -6.5186 H 1 RES   0.0000
5598 H -11.2898 13.1585 12.2059 H 1 RES   0.0000
5599 H -2.43069 -8.48174 6.36326 H 1 RES   0.0000
5600 H 0.567644 6.6052 8.93123 H 1 RES   0.0000
5601 H 6.7278 -14.7211 6.02344 H 1 RES   0.0000
5602 H 13.7096 -5.97201 -13.0455 H 1 RES   0.0000
5603 H 13.0955 -1.32422 -6.68803 H 1 RES   0.0000
5604 H 9.41452 -0.900301 0.321651 H 1 RES   0.0000
5605 H -4.25276 -1.67015 -14.3622 H 1 RES   0.0000
5606 H -8.01396 14.6908 14.8019 H 1 RES   0.0000
5607 H -2.878 -13.428 5.32755 H 1 RES   0.0000
5608 H 0.303728 13.2052 -13.1698 H 1 RES   0.0000
5609 H 8.64575 -6.83086 -8.44351 H 1 RES   0.0000
5610 H 1.39656 11.7143 10.2174 H 1 RES   0.0000
5611 H -7.18317 14.7416 10.5503 H 1 RES   0.0000
5612 H 13.5733 -8.34528 3.54179 H 1 RES   0.0000
5613 H -6.17227 -0.47142 7.59514 H 1 RES   0.0000
5614 H 3.17632 0.413982 3.51306 H 1 RES   0.0000
5615 H -0.97472 -0.226186 -9.85405 H 1 RES   0.0000
5616 H -5.63561 -6.91086 -2.77253 H 1 RES   0.0000
5617 H -7.7773 2.57127 2.33001 H 1 RES   0.0000
5618 H -0.863556 -5.67862 0.671295 H 1 RES   0.0000
5619 H -12.8179 3.7835 3.03292 H 1 RES   0.0000
5620 H -10.0135 11.4022 -4.10036 H 1 RES   0.0000
5621 H 7.65181 10.1848 -11.8255 H 1 RES   0.0000
5622 H 4.01447 -10.6614 -8.20301 H 1 RES   0.0000
5623 H 11.0246 -6.96307 -5.26802 H 1 RES   0.0000
5624 H -14.6272 -8.11457 13.8863 H 1 RES   0.0000
5625 H -14.5044 -7.34705 -1.49658 H 1 RES   0.0000
5626 H -5.30276 1.94297 8.64025 H 1 RES   0.0000
5627 H 9.5052 -6.58145 3.39714 H 1 RES   0.0000
5628 H 0.354738 -12.1548 -4.36881 H 1 RES   0.0000
5629 H -14.1158 -13.4233 -10.7366 H 1 RES   0.0000
5630 H -5.3739 8.17215 -13.3542 H 1 RES   0.0000
5631 H -3.90123 13.7089 -1.69367 H 1 RES   0.0000
5632 H 8.87268 -8.05677 -10.0487 H 1 RES   0.0000
5633 H -1.7127 -9.40099 12.4481 H 1 RES   0.0000
5634 H -2.54277 -7.06752 -8.12248 H 1 RES   0.0000
5635 H -13.7874 -0.779142 -5.22125 H 1 RES   0.0000
5636 H 5.90588 -2.6296 4.76231 H 1 RES   0.0000
5637 H -14.8408 -10.1489 -9.37562 H 1 RES   0.0000
5638 H 0.841252 -0.706357 3.79669 H 1 RES   0.0000
5639 H -8.10622 1.79487 -4.4436 H 1 RES   0.0000
5640 H 4.96978 0.236183 5.79854 H 1 RES   0.0000
5641 H 0.846478 -1.92464 10.3231 H 1 RES   0.0000
5642 H -5.04311 -6.29172 7.85723 H 1 RES   0.0000
5643 H 8.97926 -2.0537 -14.5959 H 1 RES   0.0000
5644 H 13.6818 11.8056 -8.1368 H 1 RES   0.0000
5645 H -5.94355 10.915 -1.39292 H 1 RES   0.0000
5646 H -10.3359 -1.58782 4.19986 H 1 RES   0.0000
5647 H 1.77503 -2.81928 7.32909 H 1 RES   0.0000
5648 H -13.9599 -6.89387 -0.429308 H 1 RES   0.0000
5649 H -1.48866 0.695471 -3.72631 H 1 RES   0.0000
5650 H -14.6797 -1.8306 -3.65099 H 1 RES   0.0000
5651 H -10.7086 12.4294 -9.80076 H 1 RES   0.0000
5652 H 12.4968 -9.91071 -14.3356 H 1 RES   0.0000
5653 H 10.2789 -2.61232 -6.50446 H 1 RES   0.0000
5654 H -14.1954 4.8145 5.64043 H 1 RES   0.0000
5655 H -7.3511 13.9687 1.4738 H 1 RES   0.0000
5656 H 1.00991 11.3728 -9.00251 H 1 RES   0.0000
5657 H 3.13378 -6.06629 -5.36794 H 1 RES   0.0000
5658 H 8.26997 -0.585864 7.02253 H 1 RES   0.0000
5659 H -2.94908 9.40875 9.35372 H 1 RES   0.0000
5660 H -6.72125 2.00388 11.7847 H 1 RES   0.0000
5661 H 5.25362 9.76229 -11.1441 H 1 RES   0.0000
5662 H -8.84787 6.00087 8.18611 H 1 RES   0.0000
5663 H -10.6395 -12.2221 10.5018 H 1 RES   0.0000
5664 H -2.40239 -4.35905 -2.55379 H 1 RES   0.0000
5665 H -5.33471 -9.04411 4.79798 H 1 RES   0.0000
5666 H 5.64014 7.1117 -7.89716 H 1 RES   0.0000
5667 H 14.7104 -1.6293 6.3521 H 1 RES   0.0000
5668 H -9.24499 7.50227 14.0675 H 1 RES   0.0000
5669 H -1.44769 -10.5549 -4.30321 H 1 RES   0.0000
5670 H 8.43054 -2.68826 -5.15151 H 1 RES   0.0000
5671 H 11.641 -13.201 13.268 H 1 RES   0.0000
5672 H 4.43381 -2.86083 -3.20141 H 1 RES   0.0000
5673 H -4.04356 -13.7209 -0.188024 H 1 RES   0.0000
5674 H -6.16366 -0.0818915 -14.2531 H 1 RES   0.0000
5675 H -9.84035 3.94335 -7.40219 H 1 RES   0.0000
5676 H 13.17 5.77054 3.55515 H 1 RES   0.0000
5677 H 10.528 -6.66562 1.0402 H 1 RES   0.0000
5678 H -11.4313 1.27419 9.92468 H 1 RES   0.0000
5679 H 6.03798 5.06082 3.98866 H 1 RES   0.0000
5680 H 0.447978 -4.60099 -2.80629 H 1 RES   0.0000
5681 H -11.6266 2.10715 3.37512 H 1 RES   0.0000
5682 H 9.97505 -11.7214 13.6745 H 1 RES   0.0000
5683 H -9.81131 11.0475 7.55081 H 1 RES   0.0000
5684 H -7.75783 -8.2459 -7.90126 H 1 RES   0.0000
5685 H -3.25866 -4.37329 -13.9533 H 1 RES   0.0000
5686 H -5.05641 3.74743 3.1581 H 1 RES   0.0000
5687 H -6.45029 -2.81809 -4.31659 H 1 RES   0.0000
5688 H 6.96529 7.7578 0.945724 H 1 RES   0.0000
5689 H -12.8461 -8.47379 -11.2336 H 1 RES   0.0000
5690 H -12.8043 13.1147 6.60721 H 1 RES   0.0000
5691 H 2.42463 7.62608 2.65159 H 1 RES   0.0000
5692 H 6.91539 11.7165 -11.0866 H 1 RES   0.0000
5693 H -14.7923 -9.24918 -10.402 H 1 RES   0.0000
5694 H -8.59133 14.2981 7.83147 H 1 RES   0.0000
5695 H 1.18303 13.0842 9.59206 H 1 RES   0.0000
5696 H 12.0205 -11.0111 -9.86736 H 1 RES   0.0000
5697 H -8.34899 -11.2529 10.1803 H 1 RES   0.0000
5698 H 11.621 -10.3153 7.90609 H 1 RES   0.0000
5699 H -4.67574 -10.9381 -2.2571 H 1 RES   0.0000
5700 H -4.56928 -9.32031 -1.7921 H 1 RES   0.0000
5701 H -5.2981 1.59576 2.52898 H 1 RES   0.0000
5702 H 5.12356 9.21093 12.7046 H 1 RES   0.0000
5703 H 8.45197 1.13945 -11.4871 H 1 RES   0.0000
5704 H 9.48609 -0.279329 -8.38143 H 1 RES   0.0000
5705 H 3.29954 -1.93997 6.80196 H 1 RES   0.0000
5706 H 9.43374 1.04588 6.03652 H 1 RES   0.0000
5707 H 3.66506 3.5311 10.6146 H 1 RES   0.0000
5708 H -10.3746 0.184726 -13.1397 H 1 RES   0.0000
5709 H 10.9871 11.6197 13.139 H 1 RES   0.0000
5710 H 5.65678 -10.7136 9.45144 H 1 RES   0.0000
5711 H -10.7136 -14.6698 0.730775 H 1 RES   0.0000
5712 H 2.62254 -14.496 13.6646 H 1 RES   0.0000
5713 H -0.3741 -13.7346 -12.5361 H 1 RES   0.0000
5714 H 5.63453 4.82474 11.8112 H 1 RES   0.0000
5715 H -10.1357 -12.2121 -8.34324 H 1 RES   0.0000
5716 H 5.5511 6.92468 8.56618 H 1 RES   0.0000
5717 H 10.2443 -1.05467 -9.27113 H 1 RES   0.0000
5718 H 4.18725 9.4352 -12.1984 H 1 RES   0.0000
5719 H 1.97518 9.97438 7.59408 H 1 RES   0.0000
5720 H -4.38889 1.39059 0.518458 H 1 RES   0.0000
5721 H -8.31342 14.166 9.67065 H 1 RES   0.0000
5722 H -12.2375 2.54959 -5.78052 H 1 RES   0.0000
5723 H -13.9348 13.4138 6.62438 H 1 RES   0.0000
5724 H 9.43116 13.9654 -7.72273 H 1 RES   0.0000
5725 H 6.18753 5.44445 -1.02786 H 1 RES   0.0000
5726 H -7.89998 -11.0364 -1.80235 H 1 RES   0.0000
5727 H -13.5758 -13.9734 13.4101 H 1 RES   0.0000
5728 H -5.63589 0.65934 -5.70353 H 1 RES   0.0000
5729 H 2.43296 -11.1424 -10.8321 H 1 RES   0.0000
5730 H 10.8435 12.1066 7.87207 H 1 RES   0.0000
5731 H 10.4462 -10.136 9.4727 H 1 RES   0.0000
5732 H 3.14596 7.10428 -6.12007 H 1 RES   0.0000
5733 H 7.49824 -7.4862 -0.572725 H 1 RES   0.0000
5734 H -3.60487 4.05071 2.81236 H 1 RES   0.0000
5735 H -13.4222 -10.1536 4.15947 H 1 RES   0.0000
5736 H -10.1538 6.15544 -1.4908 H 1 RES   0.0000
5737 H -4.08737 -12.4195 -13.5514 H 1 RES   0.0000
5738 H -7.70283 5.25559 -5.09689 H 1 RES   0.0000
5739 H 11.7302 -14.7781 -7.79163 H 1 RES   0.0000
5740 H -14.7502 -2.92739 1.97352 H 1 RES   0.0000
5741 H 12.1321 14.1931 -3.01822 H 1 RES   0.0000
5742 H 0.745172 -9.23031 -1.74481 H 1 RES   0.0000
5743 H -9.02911 14.1306 6.54914 H 1 RES   0.0000
5744 H -13.15 -5.1247 -7.327 H 1 RES   0.0000
5745 H 7.54859 -3.86053 11.3052 H 1 RES   0.0000
5746 H -14.2105 0.391473 0.267691 H 1 RES   0.0000
5747 H 0.58788 -2.90093 -13.484 H 1 RES   0.0000
5748 H -4.18524 -11.8001 -2.0558 H 1 RES   0.0000
5749 H 10.1371 1.45607 9.65273 H 1 RES   0.0000
5750 H 10.544 -4.53714 -9.71073 H 1 RES   0.0000
5751 H 8.44429 -6.65796 -5.50538 H 1 RES   0.0000
5752 H 13.1952 -9.09541 -9.04014 H 1 RES   0.0000
5753 H 8.2696 3.13237 5.6598 H 1 RES   0.0000
5754 H -7.57401 -2.028 -4.47828 H 1 RES   0.0000
5755 H 1.07393 9.44398 12.3108 H 1 RES   0.0000
5756 H -2.82895 12.2097 0.372351 H 1 RES   0.0000
5757 H 11.1573 10.8117 -6.14682 H 1 RES   0.0000
5758 H -11.6032 -5.86839 -1.23235 H 1 RES   0.0000
5759 H 6.79405 1.31889 8.69567 H 1 RES   0.0000
5760 H -10.6123 -14.6568 6.54261 H 1 RES   0.0000
5761 H -9.7839 10.6359 14.2271 H 1 RES   0.0000
5762 H -1.45608 8.63782 4.80615 H 1 RES   0.0000
5763 H -1.38286 5.28105 9.65322 H 1 RES   0.0000
5764 H 10.4196 11.8791 12.3974 H 1 RES   0.0000
5765 H 6.82573 4.3154 -0.359741 H 1 RES   0.0000
5766 H 6.04899 9.50952 -8.54918 H 1 RES   0.0000
5767 H 0.00851762 -9.76608 12.9825 H 1 RES   0.0000
5768 H -12.294 0.734507 -10.0346 H 1 RES   0.0000
5769 H -11.3647 10.8503 -1.50368 H 1 RES   0.0000
5770 H 10.1157 0.00646493 -9.67247 H 1 RES   0.0000
5771 H -8.66997 0.870728 -9.66553 H 1 RES   0.0000
5772 H -3.57037 7.56634 8.88723 H 1 RES   0.0000
5773 H -1.6757 -2.68179 10.72 H 1 RES   0.0000
5774 H 8.51905 6.8944 0.904549 H 1 RES   0.0000
5775 H -6.8366 -4.19655 -6.4415 H 1 RES   0.0000
5776 H 1.41466 -1.0003 -2.74785 H 1 RES   0.0000
5777 H 11.7637 -8.11887 6.89142 H 1 RES   0.0000
5778 H 11.1816 5.05514 10.2707 H 1 RES   0.0000
5779 H -11.6992 -7.43169 9.48215 H 1 RES   0.0000
5780 H -12.1766 -8.41145 9.98517 H 1 RES   0.0000
5781 H 5.955 -3.1925 -10.993 H 1 RES   0.0000
5782 H 2.08034 -0.339835 -13.8625 H 1 RES   0.0000
5783 H 5.19441 -0.943008 5.75523 H 1 RES   0.0000
5784 H -6.68103 -9.9286 -0.928581 H 1 RES   0.0000
5785 H 3.23353 5.23251 -1.12023 H 1 RES   0.0000
5786 H 13.7856 -2.28884 12.2283 H 1 RES   0.0000
5787 H 12.1516 -11.7231 -2.94678 H 1 RES   0.0000
5788 H 13.4487 10.9031 3.72455 H 1 RES   0.0000
5789 H -13.2989 10.1034 -10.6466 H 1 RES   0.0000
5790 H 13.6497 3.97248 9.42724 H 1 RES   0.0000
5791 H -8.64271 -12.8466 8.95944 H 1 RES   0.0000
5792 H -7.52075 10.0645 -6.40023 H 1 RES   0.0000
5793 H 14.3982 -9.59958 2.24085 H 1 RES   0.0000
5794 H -8.49561 -0.776774 -8.015 H 1 RES   0.0000
5795 H -2.23298 9.21903 7.71918 H 1 RES   0.0000
5796 H -5.844 12.1715 10.0772 H 1 RES   0.0000
5797 H -4.7432 -7.86543 10.4132 H 1 RES   0.0000
5798 H 13.9411 -8.18326 -5.71166 H 1 RES   0.0000
5799 H 3.48239 -0.463542 1.3531 H 1 RES   0.0000
5800 H -14.4868 10.4331 4.87891 H 1 RES   0.0000
5801 H -2.16561 10.392 11.5496 H 1 RES   0.0000
5802 H 10.2815 -5.23675 8.51946 H 1 RES   0.0000
5803 H -3.20218 -1.47878 0.55047 H 1 RES   0.0000
5804 H 1.54029 -7.78641 -8.60582 H 1 RES   0.0000
5805 H 12.9207 -4.95149 -0.161573 H 1 RES   0.0000
5806 H 3.24547 7.89068 -2.46514 H 1 RES   0.0000
5807 H 0.412444 9.6767 -0.484676 H 1 RES   0.0000
5808 H 13.9901 -1.27568 -1.58765 H 1 RES   0.0000
5809 H -6.90424 -0.597994 -11.2044 H 1 RES   0.0000
5810 H -5.24095 -3.10095 0.939169 H 1 RES   0.0000
5811 H -2.0796 8.02098 8.20595 H 1 RES   0.0000
5812 H -12.4631 14.2884 -4.1163 H 1 RES   0.0000
5813 H 0.697793 -12.7609 1.02616 H 1 RES   0.0000
5814 H -1.45169 2.40273 -3.50621 H 1 RES   0.0000
5815 H -14.545 7.82717 -7.96041 H 1 RES   0.0000
5816 H 1.05976 -8.29064 -0.384588 H 1 RES   0.0000
5817 H -12.7714 -12.9201 12.7315 H 1 RES   0.0000
5818 H 10.9526 -3.93578 -5.56499 H 1 RES   0.0000
5819 H 10.5729 -10.3991 -3.18972 H 1 RES   0.0000
5820 H 10.564 -13.8004 1.71699 H 1 RES   0.0000
5821 H 8.68364 9.82966 -6.27987 H 1 RES   0.0000
5822 H -6.95093 14.2903 -4.98526 H 1 RES   0.0000
5823 H 7.93145 8.23998 10.6112 H 1 RES   0.0000
5824 H -14.6803 11.139 -12.1487 H 1 RES   0.0000
5825 H 13.0418 -1.58113 -7.9695 H 1 RES   0.0000
5826 H 6.81236 -11.6862 14.5646 H 1 RES   0.0000
5827 H -1.20676 3.53009 -3.35244 H 1 RES   0.0000
5828 H -4.01886 3.02676 -1.06185 H 1 RES   0.0000
5829 H -10.6875 1.41922 -7.37343 H 1 RES   0.0000
5830 H -11.0376 13.7162 -3.48598 H 1 RES   0.0000
5831 H -1.37923 -7.11606 -8.30057 H 1 RES   0.0000
5832 H 10.5976 -7.97747 5.11256 H 1 RES   0.0000
5833 H -14.1784 -8.06904 -9.31847 H 1 RES   0.0000
5834 H -7.87167 -12.569 -0.971904 H 1 RES   0.0000
5835 H -8.42605 -14.8237 2.19325 H 1 RES   0.0000
5836 H -9.60465 6.7848 6.22762 H 1 RES   0.0000
5837 H -8.2452 12.6156 9.98714 H 1 RES   0.0000
5838 H 11.8806 5.10132 -12.5821 H 1 RES   0.0000
5839 H 1.28193 11.238 -10.7942 H 1 RES   0.0000
5840 H 7.59109 13.027 -3.55465 H 1 RES   0.0000
5841 H -2.651 -2.86733 -6.26689 H 1 RES   0.0000
5842 H 1.55102 11.051 10.9054 H 1 RES   0.0000
5843 H -1.96048 -10.1923 13.1786 H 1 RES   0.0000
5844 H -0.489035 0.0152149 3.82611 H 1 RES   0.0000
5845 H 7.09384 3.26716 14.0228 H 1 RES   0.0000
5846 H -3.81234 -5.56039 -11.5187 H 1 RES   0.0000
5847 H 2.35928 3.70762 9.45387 H 1 RES   0.0000
5848 H -11.9161 4.99621 -0.573181 H 1 RES   0.0000
5849 H -13.7318 10.9721 13.7494 H 1 RES   0.0000
5850 H -10.2763 -10.9821 -10.603 H 1 RES   0.0000
5851 H -10.01 -13.2738 -10.1163 H 1 RES   0.0000
5852 H -7.32054 2.63528 -12.3219 H 1 RES   0.0000
5853 H -7.98651 4.25239 13.4347 H 1 RES   0.0000
5854 H -3.28992 -11.9896 -9.43007 H 1 RES   0.0000
5855 H -11.1065 -8.6542 9.77743 H 1 RES   0.0000
5856 H -2.87519 10.2415 8.26114 H 1 RES   0.0000
5857 H -9.06041 9.98721 7.0399 H 1 RES   0.0000
5858 H 14.3872 0.249054 13.578 H 1 RES   0.0000
5859 H -13.4853 -2.52645 -10.9289 H 1 RES   0.0000
5860 H 3.61444 -3.5318 6.79055 H 1 RES   0.0000
5861 H 3.92195 14.0854 -10.8367 H 1 RES   0.0000
5862 H -3.42896 -2.25409 -8.12625 H 1 RES   0.0000
5863 H 13.9625 11.4965 -9.42635 H 1 RES   0.0000
5864 H -5.27947 -0.990101 -14.7549 H 1 RES   0.0000
5865 H 4.30864 -1.72851 -8.23959 H 1 RES   0.0000
5866 H 9.64339 5.4739 -2.66627 H 1 RES   0.0000
5867 H -7.28232 -7.19452 -0.278844 H 1 RES   0.0000
5868 H -11.7282 -4.73902 7.38701 H 1 RES   0.0000
5869 H 12.0021 6.67492 -12.3363 H 1 RES   0.0000
5870 H 9.6067 5.55566 7.60928 H 1 RES   0.0000
5871 H -0.962567 -0.979996 2.32954 H 1 RES   0.0000
5872 H -3.14619 -5.797 8.45595 H 1 RES   0.0000
5873 H -5.31173 3.40928 7.73544 H 1 RES   0.0000
5874 H -12.754 5.24086 -5.50382 H 1 RES   0.0000
5875 H -2.14679 9.41223 -6.57687 H 1 RES   0.0000
5876 H 6.00343 12.2594 7.99712 H 1 RES   0.0000
5877 H 5.05647 -7.97549 12.1059 H 1 RES   0.0000
5878 H -14.733 8.24122 11.3475 H 1 RES   0.0000
5879 H -8.44529 -1.32413 2.39084 H 1 RES   0.0000
5880 H -12.864 -11.6417 13.3645 H 1 RES   0.0000
5881 H 2.3756 -13.8423 12.7169 H 1 RES   0.0000
5882 H -12.0532 -10.5154 -2.98203 H 1 RES   0.0000
5883 H 7.99375 -1.70133 -1.2236 H 1 RES   0.0000
5884 H -11.4649 -9.94639 -8.56519 H 1 RES   0.0000
5885 H -8.95593 14.2417 -9.22147 H 1 RES   0.0000
5886 H -11.1558 -10.7281 14.499 H 1 RES   0.0000
5887 H 9.46662 5.69084 -8.95455 H 1 RES   0.0000
5888 H -12.1812 -12.394 -12.7297 H 1 RES   0.0000
5889 H -8.62013 -5.33175 -11.2 H 1 RES   0.0000
5890 H 6.31723 -14.1789 -3.52706 H 1 RES   0.0000
5891 H -0.162304 -1.74899 -1.86768 H 1 RES   0.0000
5892 H -11.1556 13.2056 1.14781 H 1 RES   0.0000
5893 H -7.29158 -10.8691 6.89717 H 1 RES   0.0000
5894 H 13.7305 -1.87201 1.41613 H 1 RES   0.0000
5895 H 13.0498 -12.115 -0.870821 H 1 RES   0.0000
5896 H 0.729954 13.9945 -7.50162 H 1 RES   0.0000
5897 H -2.75016 12.6431 -7.36169 H 1 RES   0.0000
5898 H -6.07997 5.69549 9.41497 H 1 RES   0.0000
5899 H 11.114 -10.4592 -10.2602 H 1 RES   0.0000
5900 H 6.9973 6.47809 -7.40833 H 1 RES   0.0000
5901 H -6.05147 10.6631 10.8298 H 1 RES   0.0000
5902 H -11.5964 13.0868 14.7969 H 1 RES   0.0000
5903 H 5.77891 4.79594 7.89853 H 1 RES   0.0000
5904 H 4.87781 12.8069 0.832356 H 1 RES   0.0000
5905 H -10.306 13.4717 -9.1666 H 1 RES   0.0000
5906 H -10.054 -14.0996 14.7493 H 1 RES   0.0000
5907 H -5.28214 -14.2477 6.71506 H 1 RES   0.0000
5908 H 8.65419 8.51876 -10.5552 H 1 RES   0.0000
5909 H -14.5537 12.1593 -4.01923 H 1 RES   0.0000
5910 H 7.76454 13.7455 9.95149 H 1 RES   0.0000
5911 H -10.3308 5.7265 0.631985 H 1 RES   0.0000
5912 H -3.4775 -4.34192 -12.0975 H 1 RES   0.0000
5913 H -13.3361 -1.54171 -11.9447 H 1 RES   0.0000
5914 H 13.7991 -12.8598 0.85851 H 1 RES   0.0000
5915 H -2.24926 1.95007 5.49488 H 1 RES   0.0000
5916 H 2.99086 1.32276 4.26484 H 1 RES   0.0000
5917 H 3.45233 13.5686 1.45942 H 1 RES   0.0000
5918 H 4.7804 -11.4541 -12.3239 H 1 RES   0.0000
5919 H -5.58083 14.6602 13.2738 H 1 RES   0.0000
5920 H 9.81369 14.1185 -5.05502 H 1 RES   0.0000
5921 H 8.15649 -5.01994 -2.651 H 1 RES   0.0000
5922 H -5.24667 -11.3961 -12.0686 H 1 RES   0.0000
5923 H 5.07452 -7.99118 -8.01083 H 1 RES   0.0000
5924 H 0.389159 -3.08802 3.85328 H 1 RES   0.0000
5925 H -1.22641 8.58973 -6.66297 H 1 RES   0.0000
5926 H 8.09449 9.55316 -14.0458 H 1 RES   0.0000
5927 H -6.42537 -6.3437 -12.8377 H 1 RES   0.0000
5928 H 6.46945 -6.17429 12.1277 H 1 RES   0.0000
5929 H 11.3164 1.38053 10.3841 H 1 RES   0.0000
5930 H -8.9135 0.232187 -11.4031 H 1 RES   0.0000
5931 H 2.93007 -9.13382 14.2661 H 1 RES   0.0000
5932 H 2.15787 11.0999 9.92508 H 1 RES   0.0000
5933 H -0.0172882 9.16376 12.3085 H 1 RES   0.0000
5934 H -11.7228 -7.44483 13.8648 H 1 RES   0.0000
5935 H 4.9531 6.76508 10.8187 H 1 RES   0.0000
5936 H -12.823 -1.28067 10.4739 H 1 RES   0.0000
5937 H 12.092 5.64147 -1.61916 H 1 RES   0.0000
5938 H 10.5495 -0.0489564 -10.7191 H 1 RES   0.0000
5939 H 10.4514 13.6294 7.98917 H 1 RES   0.0000
5940 H -10.5492 1.89484 -1.58343 H 1 RES   0.0000
5941 H 0.889147 10.5233 11.7477 H 1 RES   0.0000
5942 H 7.9374 3.75869 12.9776 H 1 RES   0.0000
5943 H 11.6467 4.68241 -5.87637 H 1 RES   0.0000
5944 H -12.7824 4.63843 13.5562 H 1 RES   0.0000
5945 H -13.4574 -3.68912 -7.96035 H 1 RES   0.0000
5946 H -1.7137 12.8728 4.70917 H 1 RES   0.0000
5947 H -4.97137 -4.60394 -5.34015 H 1 RES   0.0000
5948 H 7.05727 8.87981 -7.43162 H 1 RES   0.0000
5949 H -1.19092 12.7268 -8.2318 H 1 RES   0.0000
5950 H 7.74681 7.77803 -3.16239 H 1 RES   0.0000
5951 H 1.58693 12.2454 4.76478 H 1 RES   0.0000
5952 H -4.14242 -0.197864 -0.412765 H 1 RES   0.0000
5953 H -11.1704 0.0561483 -5.44039 H 1 RES   0.0000
5954 H -7.07337 -11.6494 -6.56013 H 1 RES   0.0000
5955 H -0.5478 -10.1725 10.0422 H 1 RES   0.0000
5956 H -6.24746 11.8226 -2.38883 H 1 RES   0.0000
5957 H -6.48727 3.13082 3.2037 H 1 RES   0.0000
5958 H -9.92078 -8.24716 7.93587 H 1 RES   0.0000
5959 H 14.4221 -3.92681 -7.16123 H 1 RES   0.0000
5960 H 8.74952 -3.92676 1.18477 H 1 RES   0.0000
5961 H 6.46828 4.57165 14.1327 H 1 RES   0.0000
5962 H -5.80583 13.6233 8.46794 H 1 RES   0.0000
5963 H -14.5408 9.27171 -2.78939 H 1 RES   0.0000
5964 H -10.7218 -1.27228 9.16961 H 1 RES   0.0000
5965 H 3.69117 10.8611 3.92638 H 1 RES   0.0000
5966 H -2.44059 -10.5003 -13.7153 H 1 RES   0.0000
5967 H -1.18189 -9.66911 13.4228 H 1 RES   0.0000
5968 H 3.13831 6.10311 -10.0254 H 1 RES   0.0000
5969 H 9.72639 12.4643 10.9148 H 1 RES   0.0000
5970 H 11.3707 -6.11418 13.6301 H 1 RES   0.0000
5971 H 5.13112 8.03604 12.1909 H 1 RES   0.0000
5972 H 9.78437 3.95561 -7.58649 H 1 RES   0.0000
5973 H -3.83258 6.00044 -11.3905 H 1 RES   0.0000
5974 H -12.4091 -10.4943 1.24269 H 1 RES   0.0000
5975 H -9.16981 -10.857 7.61281 H 1 RES   0.0000
5976 H 3.83582 10.3512 -3.43877 H 1 RES   0.0000
5977 H 5.29697 -9.02949 -5.22621 H 1 RES   0.0000
5978 H 9.531 9.30233 -6.60821 H 1 RES   0.0000
5979 H -8.16519 9.52192 9.31273 H 1 RES   0.0000
5980 H -12.7427 2.58453 12.0963 H 1 RES   0.0000
5981 H 11.144 -0.33125 -11.5828 H 1 RES   0.0000
5982 H -5.79157 -10.3424 7.43209 H 1 RES   0.0000
5983 H 0.947722 5.77011 14.715 H 1 RES   0.0000
5984 H 0.945976 13.6555 -2.03106 H 1 RES   0.0000
5985 H -5.67983 12.7805 13.5432 H 1 RES   0.0000
5986 H 5.00925 2.42461 3.99436 H 1 RES   0.0000
5987 H 13.7456 4.09587 -2.26498 H 1 RES   0.0000
5988 H 14.5507 -12.0916 9.43758 H 1 RES   0.0000
5989 H 11.3083 -10.0705 -14.4733 H 1 RES   0.0000
5990 H -10.7964 0.649839 2.50432 H 1 RES   0.0000
5991 H 13.0846 10.6656 7.41481 H 1 RES   0.0000
5992 H 10.6118 -10.1316 -6.14736 H 1 RES   0.0000
5993 H 4.3984 4.04136 9.89072 H 1 RES   0.0000
5994 H -2.57871 -2.01406 13.6836 H 1 RES   0.0000
5995 H 14.7712 3.09548 -7.75111 H 1 RES   0.0000
5996 H -11.5756 -7.38614 -2.4533 H 1 RES   0.0000
5997 H -0.0695321 -5.40209 -7.33391 H 1 RES   0.0000
5998 H 10.7059 -12.7376 13.8805 H 1 RES   0.0000
5999 H -3.17172 -0.168765 -8.09027 H 1 RES   0.0000
6000 H 6.63454 11.7845 12.4122 H 1 RES   0.0000
6001 H 8.16119 -11.2751 9.74012 H 1 RES   0.0000
6002 H -0.085143 9.79013 -3.18752 H 1 RES   0.0000
6003 H 5.19387 5.23774 -6.8162 H 1 RES   0.0000
6004 H 8.93885 -7.19777 -3.27024 H 1 RES   0.0000
6005 H 10.4624 1.44854 13.9805 H 1 RES   0.0000
6006 H -8.62121 9.24977 6.08527 H 1 RES   0.0000
6007 H 6.36101 -11.2498 -12.7485 H 1 RES   0.0000
6008 H 7.31872 3.75906 -3.80462 H 1 RES   0.0000
6009 H -5.24167 0.207097 4.60645 H 1 RES   0.0000
6010 H 10.7516 11.7765 -6.51999 H 1 RES   0.0000
6011 H -6.96329 -0.488627 -3.99377 H 1 RES   0.0000
6012 H -11.0367 8.52141 1.09915 H 1 RES   0.0000
6013 H 14.5767 5.65307 14.4763 H 1 RES   0.0000
6014 H 3.62549 -5.32052 -13.0631 H 1 RES   0.0000
6015 H 9.22366 13.1194 -1.74266 H 1 RES   0.0000
6016 H -4.66388 6.56291 -5.60383 H 1 RES   0.0000
6017 H 9.35154 -12.2332 -5.05579 H 1 RES   0.0000
6018 H -6.47479 0.0856856 2.56584 H 1 RES   0.0000
6019 H 9.47124 13.2585 -2.86744 H 1 RES   0.0000
6020 H -2.90994 10.0998 -10.2846 H 1 RES   0.0000
6021 H -8.69794 0.302846 -7.93392 H 1 RES   0.0000
6022 H -9.25173 10.4244 13.1483 H 1 RES   0.0000
6023 H 14.5905 -7.54649 -8.93513 H 1 RES   0.0000
6024 H 0.153402 4.61717 -10.1544 H 1 RES   0.0000
6025 H 11.2487 -14.3309 2.16789 H 1 RES   0.0000
6026 H -9.19065 -13.1301 6.01041 H 1 RES   0.0000
6027 H -7.98848 6.09595 -1.37266 H 1 RES   0.0000
6028 H 3.71887 6.15583 10.1093 H 1 RES   0.0000
6029 H -10.3243 -11.8097 -11.671 H 1 RES   0.0000
6030 H -8.67537 6.10377 5.42491 H 1 RES   0.0000
6031 H 7.28524 -6.45982 -7.50957 H 1 RES   0.0000
6032 H 14.1846 6.60167 -6.2892 H 1 RES   0.0000
6033 H -1.47052 -11.6636 -3.94295 H 1 RES   0.0000
6034 H -12.6036 1.81324 9.31369 H 1 RES   0.0000
6035 H 4.68481 13.3422 3.84016 H 1 RES   0.0000
6036 H -1.01113 -11.2509 -6.37853 H 1 RES   0.0000
6037 H -11.5746 -4.98508 -6.92546 H 1 RES   0.0000
6038 H 5.50184 9.18087 9.87177 H 1 RES   0.0000
6039 H 3.72777 2.03046 -2.39776 H 1 RES   0.0000
6040 H -0.0859343 9.82057 -11.3495 H 1 RES   0.0000
6041 H 3.0597 13.7039 -10.3771 H 1 RES   0.0000
6042 H -4.16268 -12.6421 -7.0609 H 1 RES   0.0000
6043 H -1.28251 -4.99069 7.87797 H 1 RES   0.0000
6044 H -0.56508 -9.37221 -14.7885 H 1 RES   0.0000
6045 H 9.93242 -5.1528 -12.6182 H 1 RES   0.0000
6046 H -9.66617 12.0168 1.78051 H 1 RES   0.0000
6047 H 1.38894 -11.5387 -11.5035 H 1 RES   0.0000
6048 H 5.35451 13.1513 8.21143 H 1 RES   0.0000
6049 H 12.5155 -0.111967 13.9871 H 1 RES   0.0000
6050 H -7.52412 14.5312 -0.00402222 H 1 RES   0.0000
6051 H -13.5151 13.9335 7.75288 H 1 RES   0.0000
6052 H 7.18616 -2.60432 -9.53214 H 1 RES   0.0000
6053 H 0.972242 -11.0432 -9.4417 H 1 RES   0.0000
6054 H 12.1413 8.80695 -10.9726 H 1 RES   0.0000
6055 H 4.24616 13.0416 7.54144 H 1 RES   0.0000
6056 H 1.32496 14.5505 -1.52767 H 1 RES   0.0000
6057 H 1.94737 3.2341 -5.68099 H 1 RES   0.0000
6058 H 13.099 6.15826 -1.59795 H 1 RES   0.0000
6059 H 7.02794 4.49966 -1.51962 H 1 RES   0.0000
6060 H 5.8395 -8.98901 -10.6224 H 1 RES   0.0000
6061 H 13.8821 -4.02229 14.3756 H 1 RES   0.0000
6062 H 7.6721 -13.1163 -8.25844 H 1 RES   0.0000
6063 H -9.82139 1.61137 6.62678 H 1 RES   0.0000
6064 H 9.29983 14.6979 -12.2102 H 1 RES   0.0000
6065 H 0.958259 14.0393 -5.5397 H 1 RES   0.0000
6066 H -14.6012 6.66424 4.34631 H 1 RES   0.0000
6067 H -7.66272 -7.1779 8.5642 H 1 RES   0.0000
6068 H 4.51701 -12.438 -10.4698 H 1 RES   0.0000
6069 H -11.3523 8.23174 -4.30683 H 1 RES   0.0000
6070 H -2.47554 13.6814 11.705 H 1 RES   0.0000
6071 H -6.10856 4.69718 1.35116 H 1 RES   0.0000
6072 H 13.3171 -10.8415 -13.2651 H 1 RES   0.0000
6073 H 0.212384 10.2555 9.30839 H 1 RES   0.0000
6074 H -6.77801 1.13301 -0.400117 H 1 RES   0.0000
6075 H 5.09844 0.0783732 -6.10853 H 1 RES   0.0000
6076 H 7.48397 -13.8335 3.94921 H 1 RES   0.0000
6077 H -3.68255 -12.6216 -11.7715 H 1 RES   0.0000
6078 H 6.16557 0.785516 11.6983 H 1 RES   0.0000
6079 H -8.53994 3.23279 9.13908 H 1 RES   0.0000
6080 H -7.65955 1.74375 -11.7046 H 1 RES   0.0000
6081 H 6.15069 -9.87544 -9.31098 H 1 RES   0.0000
6082 H -9.28215 2.33686 0.528571 H 1 RES   0.0000
6083 H 1.09014 14.0691 -13.519 H 1 RES   0.0000
6084 H -7.40687 -0.0984681 9.83544 H 1 RES   0.0000
6085 H -6.19944 -9.98967 13.2076 H 1 RES   0.0000
6086 H -2.40443 8.31575 -10.0859 H 1 RES   0.0000
6087 H -7.64341 -4.83985 -10.1656 H 1 RES   0.0000
6088 H 9.5308 12.4307 -8.5801 H 1 RES   0.0000
6089 H 6.57514 -14.63 11.788 H 1 RES   0.0000
6090 H 6.88518 6.57315 11.7985 H 1 RES   0.0000
6091 H -13.8029 -9.21087 -9.64617 H 1 RES   0.0000
6092 H 7.60731 2.33255 12.0062 H 1 RES   0.0000
6093 H 14.0572 11.7347 1.53914 H 1 RES   0.0000
6094 H -7.78248 8.20425 -3.37364 H 1 RES   0.0000
6095 H 1.41283 -9.45202 -14.2439 H 1 RES   0.0000
6096 H -6.84404 5.30976 -0.654414 H 1 RES   0.0000
6097 H 5.37721 -2.99227 -1.20741 H 1 RES   0.0000
6098 H 11.1209 2.56723 14.2019 H 1 RES   0.0000
6099 H -11.5078 -9.25348 4.61201 H 1 RES   0.0000
6100 H -11.2994 -10.6164 -13.6124 H 1 RES   0.0000
6101 H -9.63651 -0.938235 -0.627605 H 1 RES   0.0000
6102 H -0.837426 11.3708 10.2212 H 1 RES   0.0000
6103 H 1.53182 12.411 -3.27687 H 1 RES   0.0000
6104 H -7.18823 1.5648 1.77962 H 1 RES   0.0000
6105 H 12.1275 -14.7141 4.18901 H 1 RES   0.0000
6106 H -5.8163 -8.24284 7.93128 H 1 RES   0.0000
6107 H -12.1528 -8.97381 1.13859 H 1 RES   0.0000
6108 H -11.1262 -0.228866 -7.27131 H 1 RES   0.0000
6109 H 6.67036 7.62785 -12.3418 H 1 RES   0.0000
6110 H -2.71922 -4.1806 7.16679 H 1 RES   0.0000
6111 H 8.12508 -7.69804 2.2964 H 1 RES   0.0000
6112 H -0.33739 8.54759 -5.96886 H 1 RES   0.0000
6113 H 13.3007 7.92443 -2.42144 H 1 RES   0.0000
6114 H -5.87844 7.4295 -2.35675 H 1 RES   0.0000
6115 H -7.3059 6.66356 9.22649 H 1 RES   0.0000
6116 H -10.6627 1.64268 7.51475 H 1 RES   0.0000
6117 H -14.0973 -7.79727 -2.36967 H 1 RES   0.0000
6118 H -0.687296 -10.6016 -14.7409 H 1 RES   0.0000
6119 H 12.5943 -12.8791 -0.276563 H 1 RES   0.0000
6120 H -2.50766 -5.93414 2.12423 H 1 RES   0.0000
6121 H -3.14313 0.00383765 12.4226 H 1 RES   0.0000
6122 H 9.00683 3.36031 -7.04779 H 1 RES   0.0000
6123 H 10.6856 -11.8712 -7.04965 H 1 RES   0.0000
6124 H -2.40223 3.27124 8.46948 H 1 RES   0.0000
6125 H 2.94869 1.06074 1.20651 H 1 RES   0.0000
6126 H -13.9535 0.985084 13.6927 H 1 RES   0.0000
6127 H 9.03458 -7.78919 2.77704 H 1 RES   0.0000
6128 H 3.05093 -2.72179 0.132483 H 1 RES   0.0000
6129 H -3.10495 -8.42609 -8.19411 H 1 RES   0.0000
6130 H 10.357 -1.73449 -11.229 H 1 RES   0.0000
6131 H 12.6107 -14.0701 -14.7789 H 1 RES   0.0000
6132 H 1.97591 14.3907 4.99883 H 1 RES   0.0000
6133 H -1.27819 0.119792 -4.64681 H 1 RES   0.0000
6134 H 6.37728 2.66798 7.46576 H 1 RES   0.0000
6135 H -2.96716 -13.3869 4.1515 H 1 RES   0.0000
6136 H 8.82337 -1.05379 -8.61102 H 1 RES   0.0000
6137 H -9.00443 -10.7638 14.7052 H 1 RES   0.0000
6138 H -9.22404 9.28356 4.70207 H 1 RES   0.0000
6139 H -5.25357 9.78764 12.5756 H 1 RES   0.0000
6140 H -4.02056 -10.4227 12.5518 H 1 RES   0.0000
6141 H 8.71422 11.462 -13.0128 H 1 RES   0.0000
6142 H 10.7244 4.824 2.12095 H 1 RES   0.0000
6143 H 4.21422 -2.39417 -11.9458 H 1 RES   0.0000
6144 H 8.49908 -12.4785 0.109101 H 1 RES   0.0000
6145 H 10.5408 9.01458 10.5162 H 1 RES   0.0000
6146 H -13.4916 12.3495 1.31816 H 1 RES   0.0000
6147 H -1.64518 -13.0024 8.18989 H 1 RES   0.0000
6148 H -1.36771 13.4615 -10.8091 H 1 RES   0.0000
6149 H -14.6322 -9.87181 -11.5235 H 1 RES   0.0000
6150 H 14.4425 -1.27 8.74528 H 1 RES   0.0000
6151 H 14.6502 -13.2051 -0.877695 H 1 RES   0.0000
6152 H -14.1312 -7.86941 -8.01669 H 1 RES   0.0000
6153 H 1.72235 -14.4431 -5.14112 H 1 RES   0.0000
6154 H 5.54313 10.6356 6.78659 H 1 RES   0.0000
6155 H 1.2413 -7.47839 14.4316 H 1 RES   0.0000
6156 H -12.6173 -11.6259 14.7647 H 1 RES   0.0000
6157 H -10.4136 -10.001 1.11908 H 1 RES   0.0000
6158 H 12.4841 3.95877 -0.499763 H 1 RES   0.0000
6159 H -11.2353 2.34328 -4.76742 H 1 RES   0.0000
6160 H 11.2593 -12.0347 -13.3114 H 1 RES   0.0000
6161 H -3.38685 5.77144 -2.23558 H 1 RES   0.0000
6162 H -6.2417 -9.35807 6.77676 H 1 RES   0.0000
6163 H -11.268 12.7624 3.77419 H 1 RES   0.0000
6164 H 10.0645 -4.86183 -3.45281 H 1 RES   0.0000
6165 H -2.17047 4.10739 -0.123257 H 1 RES   0.0000
6166 H 14.6298 10.0864 14.4939 H 1 RES   0.0000
6167 H 6.74036 -3.85298 12.5304 H 1 RES   0.0000
6168 H -0.936269 14.5599 5.28556 H 1 RES   0.0000
6169 H 0.706634 -10.5778 4.74159 H 1 RES   0.0000
6170 H -10.1998 -4.36462 -13.6846 H 1 RES   0.0000
6171 H -10.5924 9.76359 -2.07756 H 1 RES   0.0000
6172 H 5.58166 -3.96789 -4.6977 H 1 RES   0.0000
6173 H 13.1205 -4.32627 8.77628 H 1 RES   0.0000
6174 H 2.95558 -14.1334 -0.333245 H 1 RES   0.0000
6175 H 14.8371 9.33723 -13.2528 H 1 RES   0.0000
6176 H -8.58737 -5.55681 8.06328 H 1 RES   0.0000
6177 H 0.212917 -13.5899 -3.13299 H 1 RES   0.0000
6178 H 6.44712 13.1293 8.57173 H 1 RES   0.0000
6179 H 2.5468 13.4771 4.91068 H 1 RES   0.0000
6180 H 13.5581 -13.7028 12.3804 H 1 RES   0.0000
6181 H 2.94545 9.3925 6.51349 H 1 RES   0.0000
6182 H -14.4866 -11.1843 1.26462 H 1 RES   0.0000
6183 H 11.3674 -9.29738 -9.24827 H 1 RES   0.0000
6184 H 7.40412 5.26692 2.07911 H 1 RES   0.0000
6185 H 6.41726 7.29973 -6.82023 H 1 RES   0.0000
6186 H -1.10188 2.30033 6.86264 H 1 RES   0.0000
6187 H -7.05577 -6.98575 -9.89099 H 1 RES   0.0000
6188 H -11.0763 -7.41373 -8.03642 H 1 RES   0.0000
6189 H -0.972735 0.212463 -13.0735 H 1 RES   0.0000
6190 H -4.12883 -9.39219 0.917685 H 1 RES   0.0000
6191 H 10.0342 -9.49398 -2.81934 H 1 RES   0.0000
6192 H 6.11189 0.866919 -2.56252 H 1 RES   0.0000
6193 H 7.64925 13.3084 5.07381 H 1 RES   0.0000
6194 H -2.90085 -5.97092 -8.94103 H 1 RES   0.0000
6195 H 14.1059 9.85013 -7.40453 H 1 RES   0.0000
6196 H 5.64839 -0.125377 -1.29656 H 1 RES   0.0000
6197 H 13.916 -14.7474 -12.9157 H 1 RES   0.0000
6198 H 6.2591 9.44985 7.80897 H 1 RES   0.0000
6199 H -2.17476 -5.59749 13.7929 H 1 RES   0.0000
6200 H 14.6665 0.672787 1.60516 H 1 RES   0.0000
6201 H 9.31959 10.1835 5.50104 H 1 RES   0.0000
6202 H -7.54007 0.605337 2.58432 H 1 RES   0.0000
6203 H -12.2766 -4.3285 10.9709 H 1 RES   0.0000
6204 H 11.8565 4.64391 -0.107745 H 1 RES   0.0000
6205 H 2.22917 -11.4346 6.73287 H 1 RES   0.0000
6206 H -12.5559 8.46704 -9.34073 H 1 RES   0.0000
6207 H 0.49883 0.745609 1.82637 H 1 RES   0.0000
6208 H -6.15857 11.0689 2.77993 H 1 RES   0.0000
6209 H -1.40346 -6.88273 -2.77311 H 1 RES   0.0000
6210 H 7.78086 13.6606 2.21362 H 1 RES   0.0000
6211 H 1.7164 8.643 7.19241 H 1 RES   0.0000
6212 H -12.2769 -3.10523 11.7051 H 1 RES   0.0000
6213 H 11.631 -9.13287 14.4134 H 1 RES   0.0000
6214 H -6.22579 -12.4544 -7.52746 H 1 RES   0.0000
6215 H -4.76876 3.71733 1.62765 H 1 RES   0.0000
6216 H -11.6142 1.52774 -5.47054 H 1 RES   0.0000
6217 H -8.32693 -9.33652 -3.34931 H 1 RES   0.0000
6218 H -6.21058 -3.48038 -10.9576 H 1 RES   0.0000
6219 H 11.5385 1.09968 13.1361 H 1 RES   0.0000
6220 H 4.80013 -3.6916 13.1486 H 1 RES   0.0000
6221 H 4.68973 4.1146 6.27681 H 1 RES   0.0000
6222 H -13.0932 -12.1829 -10.3866 H 1 RES   0.0000
6223 H 10.5866 -4.911 -8.54818 H 1 RES   0.0000
6224 H 9.70036 -5.27043 0.118014 H 1 RES   0.0000
6225 H -2.16501 11.1047 -3.73951 H 1 RES   0.0000
6226 H -12.84 -2.93904 -1.45412 H 1 RES   0.0000
6227 H 11.456 3.82389 0.767899 H 1 RES   0.0000
6228 H -2.59672 -14.3094 0.785613 H 1 RES   0.0000
6229 H -5.35755 13.7835 1.03492 H 1 RES   0.0000
6230 H 0.43051 -5.96665 -2.65875 H 1 RES   0.0000
6231 H 11.9436 -6.88863 -9.13606 H 1 RES   0.0000
6232 H -8.3869 -5.68825 -5.9314 H 1 RES   0.0000
6233 H -10.9643 -6.34475 -11.3448 H 1 RES   0.0000
6234 H -5.47632 -13.166 4.92507 H 1 RES   0.0000
6235 H -10.1012 2.24274 -11.1136 H 1 RES   0.0000
6236 H 5.03308 2.57157 14.1981 H 1 RES   0.0000
6237 H 9.39473 -2.82804 -5.74335 H 1 RES   0.0000
6238 H 14.3792 -13.9779 -4.10234 H 1 RES   0.0000
6239 H 3.78895 12.3435 -12.3386 H 1 RES   0.0000
6240 H -3.58803 1.5029 -4.51457 H 1 RES   0.0000
6241 H 0.637478 13.8411 3.50188 H 1 RES   0.0000
6242 H 2.2277 -13.6598 -13.0846 H 1 RES   0.0000
6243 H -12.4238 -0.0611849 10.4841 H 1 RES   0.0000
6244 H 7.76733 -6.71947 13.8877 H 1 RES   0.0000
6245 H -2.92048 12.4312 -3.21656 H 1 RES   0.0000
6246 H 3.66714 9.33332 14.6554 H 1 RES   0.0000
6247 H -14.3385 -5.25647 -8.89385 H 1 RES   0.0000
6248 H 2.54415 -9.72101 2.588 H 1 RES   0.0000
6249 H -13.1706 -6.33064 -7.17226 H 1 RES   0.0000
6250 H -5.86441 6.09578 1.29636 H 1 RES   0.0000
6251 H 5.14395 1.07591 -2.29819 H 1 RES   0.0000
6252 H 3.87035 1.0105 -13.0245 H 1 RES   0.0000
6253 H -9.92462 -3.74072 -1.1504 H 1 RES   0.0000
6254 H 0.376287 -6.16679 -0.500984 H 1 RES   0.0000
6255 H -9.7338 7.36421 1.04302 H 1 RES   0.0000
6256 H 10.3884 7.2585 -13.2431 H 1 RES   0.0000
6257 H 4.31664 -11.1055 10.0321 H 1 RES   0.0000
6258 H -7.58282 6.85855 4.87918 H 1 RES   0.0000
6259 H -1.78089 13.6639 3.63351 H 1 RES   0.0000
6260 H 0.678905 4.06704 8.67361 H 1 RES   0.0000
6261 H 6.71592 9.48607 -5.5777 H 1 RES   0.0000
6262 H -8.9483 -6.7089 12.522 H 1 RES   0.0000
6263 H -10.4253 8.05348 -10.04 H 1 RES   0.0000
6264 H -6.09616 14.1651 -10.9745 H 1 RES   0.0000
6265 H -10.7656 -5.58941 -14.2213 H 1 RES   0.0000
6266 H 4.31205 -0.952555 2.38788 H 1 RES   0.0000
6267 H 6.08415 5.63371 8.78485 H 1 RES   0.0000
6268 H -5.18844 4.75157 -2.55082 H 1 RES   0.0000
6269 H 3.49708 -8.44342 -8.47976 H 1 RES   0.0000
6270 H -2.78856 -11.3727 0.780716 H 1 RES   0.0000
6271 H 5.97269 11.4648 -13.3338 H 1 RES   0.0000
6272 H 4.50007 9.50087 13.9725 H 1 RES   0.0000
6273 H -6.32874 1.32785 -6.7624 H 1 RES   0.0000
6274 H -12.397 2.10067 8.2597 H 1 RES   0.0000
6275 H 11.119 -3.52246 -11.067 H 1 RES   0.0000
6276 H 8.95978 5.01966 9.497 H 1 RES   0.0000
6277 H 3.44581 4.62124 -5.96963 H 1 RES   0.0000
6278 H 2.97819 -6.03093 -2.15683 H 1 RES   0.0000
6279 H 11.1652 2.45963 -7.13512 H 1 RES   0.0000
6280 H 12.3173 6.43039 -14.2889 H 1 RES   0.0000
6281 H 10.4287 -5.79177 3.8493 H 1 RES   0.0000
6282 H 2.23028 -9.13463 -0.984941 H 1 RES   0.0000
6283 H -8.95523 -3.27052 2.40742 H 1 RES   0.0000
6284 H -8.92372 0.0427781 1.42413 H 1 RES   0.0000
6285 H -6.37229 8.87131 -14.565 H 1 RES   0.0000
6286 H -0.496811 -12.7331 9.02911 H 1 RES   0.0000
6287 H -13.6917 -4.0537 -12.6921 H 1 RES   0.0000
6288 H -9.00479 8.80648 9.48589 H 1 RES   0.0000
6289 H -14.5446 -5.88905 -1.48997 H 1 RES   0.0000
6290 H 6.51303 -9.50497 -12.9974 H 1 RES   0.0000
6291 H -5.01848 -1.07495 3.96775 H 1 RES   0.0000
6292 H 0.359434 1.16094 -6.24839 H 1 RES   0.0000
6293 H -7.91956 5.9233 0.8194 H 1 RES   0.0000
6294 H 3.87434 1.89755 -5.5537 H 1 RES   0.0000
6295 H 3.32181 1.77695 -12.3256 H 1 RES   0.0000
6296 H 7.40232 8.01147 -1.42702 H 1 RES   0.0000
6297 H -2.75617 1.61862 0.604082 H 1 RES   0.0000
6298 H -5.94713 1.71424 13.0239 H 1 RES   0.0000
6299 H -1.95228 9.76159 9.06809 H 1 RES   0.0000
6300 H -0.247819 -14.09 -13.9821 H 1 RES   0.0000
6301 H 9.06924 7.50456 9.46618 H 1 RES   0.0000
6302 H -6.50039 13.5881 13.5019 H 1 RES   0.0000
6303 H -11.8549 5.42838 1.94573 H 1 RES   0.0000
6304 H 4.70714 -1.72191 -6.06292 H 1 RES   0.0000
6305 H -5.09017 3.22556 0.244309 H 1 RES   0.0000
6306 H -2.60916 -2.11152 -11.2099 H 1 RES   0.0000
6307 H -5.67431 -8.0135 -6.46034 H 1 RES   0.0000
6308 H 2.57023 -3.18035 -5.63624 H 1 RES   0.0000
6309 H 9.06903 -7.51087 12.3059 H 1 RES   0.0000
6310 H -0.787686 -4.60586 -8.18771 H 1 RES   0.0000
6311 H -0.294487 0.772024 4.54871 H 1 RES   0.0000
6312 H 8.14697 11.7304 13.0485 H 1 RES   0.0000
6313 H -6.81061 -6.19483 -1.18023 H 1 RES   0.0000
6314 H -5.41493 4.59151 -8.23176 H 1 RES   0.0000
6315 H 3.05318 -0.941594 5.64059 H 1 RES   0.0000
6316 H 1.35727 -4.07068 9.68853 H 1 RES   0.0000
6317 H 4.00393 -13.1464 -13.7369 H 1 RES   0.0000
6318 H -1.40352 -10.6851 -5.44438 H 1 RES   0.0000
6319 H 9.43256 -12.1084 -7.28592 H 1 RES   0.0000
6320 H -8.92153 -9.31076 -12.2077 H 1 RES   0.0000
6321 H 5.91799 -7.87943 2.25685 H 1 RES   0.0000
6322 H -4.33155 -5.82933 11.6932 H 1 RES   0.0000
6323 H -2.51865 10.668 -8.30271 H 1 RES   0.0000
6324 H -9.4581 -2.93877 -12.1291 H 1 RES   0.0000
6325 H -11.5477 -10.2421 -11.4106 H 1 RES   0.0000
6326 H -6.9327 -5.1307 -12.4892 H 1 RES   0.0000
6327 H -7.86172 8.09296 8.12943 H 1 RES   0.0000
6328 H -6.3717 -1.55248 -4.27252 H 1 RES   0.0000
6329 H -7.86362 5.16529 14.3047 H 1 RES   0.0000
6330 H -12.2466 -0.959785 -0.295115 H 1 RES   0.0000
6331 H 11.7792 0.348415 -9.25488 H 1 RES   0.0000
6332 H -1.13813 9.24547 -5.3156 H 1 RES   0.0000
6333 H 10.5433 -5.30388 -5.1205 H 1 RES   0.0000
6334 H 4.32017 7.84715 9.61491 H 1 RES   0.0000
6335 H -7.89026 -14.6067 0.811337 H 1 RES   0.0000
6336 H 8.97834 13.0023 -11.3099 H 1 RES   0.0000
6337 H 0.57546 9.85469 -13.4954 H 1 RES   0.0000
6338 H -9.23924 -8.45318 -9.02942 H 1 RES   0.0000
6339 H -8.6669 7.44407 -1.7269 H 1 RES   0.0000
6340 H -9.15658 11.3343 0.01092 H 1 RES   0.0000
6341 H 0.8511 7.69434 -5.96022 H 1 RES   0.0000
6342 H 10.2639 -9.33336 -12.9328 H 1 RES   0.0000
6343 H -4.63369 -14.2326 4.65425 H 1 RES   0.0000
6344 H 2.13367 0.142383 -11.1854 H 1 RES   0.0000
6345 H 8.46811 -0.460852 3.16641 H 1 RES   0.0000
6346 H -0.498964 5.735 9.99533 H 1 RES   0.0000
6347 H 4.17397 3.23635 12.693 H 1 RES   0.0000
6348 H 12.0767 -4.7519 -8.03185 H 1 RES   0.0000
6349 H -7.62079 10.0744 -12.1134 H 1 RES   0.0000
6350 H -10.0294 -3.02053 2.32391 H 1 RES   0.0000
6351 H -2.60468 2.90748 13.1714 H 1 RES   0.0000
6352 H 13.2771 2.52686 2.40121 H 1 RES   0.0000
6353 H -1.8302 -5.03336 5.5303 H 1 RES   0.0000
6354 H 5.23221 -1.46736 2.92168 H 1 RES   0.0000
6355 H -7.00199 -5.96233 7.9837 H 1 RES   0.0000
6356 H -3.57417 -13.2994 -6.3149 H 1 RES   0.0000
6357 H -14.383 0.456514 8.25289 H 1 RES   0.0000
6358 H 6.82724 12.5619 -12.8297 H 1 RES   0.0000
6359 H -8.21446 -6.29742 3.29277 H 1 RES   0.0000
6360 H 5.82062 -1.34632 8.38131 H 1 RES   0.0000
6361 H 3.8084 14.3572 -4.76925 H 1 RES   0.0000
6362 H 9.11328 12.5161 -13.1053 H 1 RES   0.0000
6363 H 9.26594 -9.91584 -3.54557 H 1 RES   0.0000
6364 H -14.3859 -8.78003 -11.5168 H 1 RES   0.0000
6365 H -4.94012 -2.24718 9.80432 H 1 RES   0.0000
6366 H -10.5963 7.85884 -5.84842 H 1 RES   0.0000
6367 H 14.3827 -6.09957 4.82137 H 1 RES   0.0000
6368 H -12.348 -1.72746 13.2165 H 1 RES   0.0000
6369 H 8.88442 -9.56179 3.11803 H 1 RES   0.0000
6370 H 6.94418 5.62352 -1.84868 H 1 RES   0.0000
6371 H 12.2673 -4.40178 -11.7226 H 1 RES   0.0000
6372 H 7.73035 8.98257 -8.47988 H 1 RES   0.0000
6373 H 14.5714 -8.28126 -10.8631 H 1 RES   0.0000
6374 H -4.20205 11.0111 8.23051 H 1 RES   0.0000
6375 H -1.80696 -13.3812 -13.8106 H 1 RES   0.0000
6376 H 2.22394 -1.49496 -7.07363 H 1 RES   0.0000
6377 H 11.02 -8.32123 -2.31513 H 1 RES   0.0000
6378 H 8.42689 12.71 -14.8295 H 1 RES   0.0000
6379 H 14.5026 7.96758 12.5933 H 1 RES   0.0000
6380 H 14.0884 -14.7321 5.6483 H 1 RES   0.0000
6381 H 14.5562 7.39375 0.354326 H 1 RES   0.0000
6382 H 6.37528 11.9372 -2.56739 H 1 RES   0.0000
6383 H 12.1776 -6.91376 12.0851 H 1 RES   0.0000
6384 H -2.66189 -1.36031 2.82466 H 1 RES   0.0000
6385 H -14.4685 6.65265 10.9803 H 1 RES   0.0000
6386 H 12.8545 6.91838 -2.74826 H 1 RES   0.0000
6387 H 13.4861 13.3021 4.80417 H 1 RES   0.0000
6388 H 12.1419 4.88808 -2.49458 H 1 RES   0.0000
6389 H -10.022 13.1816 -13.8415 H 1 RES   0.0000
6390 H -3.85841 3.68902 7.21722 H 1 RES   0.0000
6391 H -4.94759 -4.08733 6.60164 H 1 RES   0.0000
6392 H -9.87964 -8.64302 -5.7787 H 1 RES   0.0000
6393 H -14.3296 -8.07666 -6.86901 H 1 RES   0.0000
6394 H 7.35317 6.7277 13.7004 H 1 RES   0.0000
6395 H 12.1489 2.58364 -3.38282 H 1 RES   0.0000
6396 H 7.35981 8.02144 2.44884 H 1 RES   0.0000
6397 H 6.35097 9.71643 2.81648 H 1 RES   0.0000
6398 H -10.7334 -9.69336 7.54288 H 1 RES   0.0000
6399 H 10.1357 0.401385 -5.15583 H 1 RES   0.0000
6400 H -2.4692 -13.7461 -7.79515 H 1 RES   0.0000
6401 H -5.50979 -3.10248 9.48971 H 1 RES   0.0000
6402 H -1.23034 6.02627 14.0984 H 1 RES   0.0000
6403 H -7.19436 9.97931 10.7233 H 1 RES   0.0000
6404 H -5.74985 -11.5104 -7.28548 H 1 RES   0.0000
6405 H -8.41023 9.87961 10.6605 H 1 RES   0.0000
6406 H 13.2338 9.9102 0.0769816 H 1 RES   0.0000
6407 H 2.07864 -0.411607 -6.32812 H 1 RES   0.0000
6408 H 12.1673 10.284 12.16 H 1 RES   0.0000
6409 H -12.5909 8.33309 -1.82057 H 1 RES   0.0000
6410 H -3.38974 4.80167 8.00873 H 1 RES   0.0000
6411 H 6.3324 6.63803 -11.9089 H 1 RES   0.0000
6412 H 2.57146 -6.11386 -14.1289 H 1 RES   0.0000
6413 H -5.82523 -13.2658 9.81208 H 1 RES   0.0000
6414 H 13.3542 -10.0385 2.43922 H 1 RES   0.0000
6415 H 0.0690146 5.29536 -0.128134 H 1 RES   0.0000
6416 H 3.53339 8.7943 11.4479 H 1 RES   0.0000
6417 H 13.1573 -14.6226 12.7238 H 1 RES   0.0000
6418 H -10.4149 -2.74529 -0.930322 H 1 RES   0.0000
6419 H -3.23516 9.48279 1.10369 H 1 RES   0.0000
6420 H 3.67333 -11.8543 7.29485 H 1 RES   0.0000
6421 H 5.29852 5.45611 13.7389 H 1 RES   0.0000
6422 H -6.42803 3.20122 -14.6438 H 1 RES   0.0000
6423 H -0.68113 11.4042 -4.57546 H 1 RES   0.0000
6424 H -6.38041 -10.7692 4.90906 H 1 RES   0.0000
6425 H -3.15285 -13.8378 2.25922 H 1 RES   0.0000
6426 H 0.950481 -1.0945 5.41808 H 1 RES   0.0000
6427 H -0.505235 -8.88608 -12.0981 H 1 RES   0.0000
6428 H -7.29547 -2.21609 -12.5658 H 1 RES   0.0000
6429 H -7.49979 -11.7479 8.73197 H 1 RES   0.0000
6430 H 1.28399 2.18497 -8.77266 H 1 RES   0.0000
6431 H -1.92919 -1.43722 13.0135 H 1 RES   0.0000
6432 H 13.7562 10.154 -8.73061 H 1 RES   0.0000
6433 H 8.82327 14.1973 -11.3438 H 1 RES   0.0000
6434 H 12.8715 10.779 -7.96533 H 1 RES   0.0000
6435 H -7.28045 -1.17256 7.5524 H 1 RES   0.0000
6436 H -10.815 12.0204 12.1827 H 1 RES   0.0000
6437 H -14.5197 1.99387 -9.88929 H 1 RES   0.0000
6438 H 1.91309 -10.2785 8.36808 H 1 RES   0.0000
6439 H 12.0123 12.459 10.3662 H 1 RES   0.0000
6440 H -9.45185 8.8748 -4.11169 H 1 RES   0.0000
6441 H -1.89249 -3.16868 8.09168 H 1 RES   0.0000
6442 H 5.93654 -4.46148 0.544199 H 1 RES   0.0000
6443 H -7.1097 14.6621 -10.3681 H 1 RES   0.0000
6444 H -7.35284 3.54539 0.799549 H 1 RES   0.0000
6445 H -5.98472 -1.63072 -6.52232 H 1 RES   0.0000
6446 H -5.81893 -8.6618 10.6185 H 1 RES   0.0000
6447 H 8.0332 6.73738 -4.76852 H 1 RES   0.0000
6448 H 4.5623 -4.75617 4.15935 H 1 RES   0.0000
6449 H 2.12816 1.44903 7.58388 H 1 RES   0.0000
6450 H 4.98385 -10.111 -7.62609 H 1 RES   0.0000
6451 H 13.9603 11.275 9.44067 H 1 RES   0.0000
6452 H -11.3048 3.13498 -13.5913 H 1 RES   0.0000
6453 H 4.03653 -5.04266 11.7384 H 1 RES   0.0000
6454 H -4.34826 -12.9259 -10.0749 H 1 RES   0.0000
6455 H 11.2073 -10.3381 -12.8541 H 1 RES   0.0000
6456 H -0.383811 11.3814 -6.89834 H 1 RES   0.0000
6457 H -5.28392 12.3096 -12.6505 H 1 RES   0.0000
6458 H 6.76461 3.48334 -6.28281 H 1 RES   0.0000
6459 H 10.6205 2.45265 11.931 H 1 RES   0.0000
6460 H -12.2732 12.3839 9.54519 H 1 RES   0.0000
6461 H 12.6411 -4.82047 -4.3444 H 1 RES   0.0000
6462 H 5.39697 0.780055 -0.860733 H 1 RES   0.0000
6463 H 7.31265 -11.239 0.269218 H 1 RES   0.0000
6464 H -9.65163 12.0457 -2.74893 H 1 RES   0.0000
6465 H -14.5143 -13.7879 -5.00574 H 1 RES   0.0000
6466 H 12.2636 -1.91963 -10.4203 H 1 RES   0.0000
6467 H -13.0592 3.4573 6.99385 H 1 RES   0.0000
6468 H -11.989 3.67163 2.34692 H 1 RES   0.0000
6469 H -6.85561 -10.1884 6.14766 H 1 RES   0.0000
6470 H 2.32536 -0.517315 8.99601 H 1 RES   0.0000
6471 H -1.44989 -11.0734 14.4012 H 1 RES   0.0000
6472 H -4.13233 -0.862892 6.19707 H 1 RES   0.0000
6473 H 2.80968 -0.393043 11.7874 H 1 RES   0.0000
6474 H 13.6013 -0.563853 -8.49743 H 1 RES   0.0000
6475 H 13.1653 -4.04392 6.36571 H 1 RES   0.0000
6476 H -4.96976 -10.3476 -8.69252 H 1 RES   0.0000
6477 H 11.8809 0.102447 12.0297 H 1 RES   0.0000
6478 H -3.83257 0.781026 12.0958 H 1 RES   0.0000
6479 H -12.041 5.34892 -2.25018 H 1 RES   0.0000
6480 H 3.34951 -2.73183 -7.27515 H 1 RES   0.0000
6481 H 10.4091 10.3245 -9.45877 H 1 RES   0.0000
6482 H -9.28461 12.4284 -6.46852 H 1 RES   0.0000
6483 H 1.73043 4.82444 -4.15593 H 1 RES   0.0000
6484 H 6.04099 -13.3551 -6.89906 H 1 RES   0.0000
6485 H -3.09381 -11.5862 10.8708 H 1 RES   0.0000
6486 H -5.3974 -6.76522 -9.18976 H 1 RES   0.0000
6487 H -0.0781581 -11.3216 -11.9034 H 1 RES   0.0000
6488 H -4.48809 1.34296 -11.3289 H 1 RES   0.0000
6489 H -9.43699 -5.45552 -13.6135 H 1 RES   0.0000
6490 H 5.91467 -3.41988 3.72567 H 1 RES   0.0000
6491 H -8.6928 1.26446 3.50017 H 1 RES   0.0000
6492 H 13.5178 -2.15551 -4.42828 H 1 RES   0.0000
6493 H -5.49731 2.37045 12.1177 H 1 RES   0.0000
6494 H -2.945 -7.97965 2.58869 H 1 RES   0.0000
6495 H -10.649 -1.40425 -0.799513 H 1 RES   0.0000
6496 H 3.04438 4.68483 10.3571 H 1 RES   0.0000
6497 H -8.24553 13.6256 -0.58081 H 1 RES   0.0000
6498 H -2.03183 5.81312 4.63229 H 1 RES   0.0000
6499 H 9.64383 2.32455 -8.57839 H 1 RES   0.0000
6500 H 2.54283 12.053 -2.74944 H 1 RES   0.0000
6501 H 8.04563 -13.4396 -6.75287 H 1 RES   0.0000
6502 H 11.2756 -0.335039 -5.20383 H 1 RES   0.0000
6503 H 0.243249 -13.236 1.99486 H 1 RES   0.0000
6504 H 4.99041 -3.85748 1.98777 H 1 RES   0.0000
6505 H -10.2691 14.1183 -11.6336 H 1 RES   0.0000
6506 H 11.5996 -2.22222 11.0676 H 1 RES   0.0000
6507 H -0.514472 -6.91811 -13.7666 H 1 RES   0.0000
6508 H -1.78047 -7.02125 -10.9991 H 1 RES   0.0000
6509 H -0.784597 12.9909 -13.9211 H 1 RES   0.0000
6510 H -14.0552 10.7515 -4.4743 H 1 RES   0.0000
6511 H -8.35788 12.2309 -2.95399 H 1 RES   0.0000
6512 H -12.7152 6.26509 2.22731 H 1 RES   0.0000
6513 H -10.5604 11.0607 -7.64264 H 1 RES   0.0000
6514 H 2.56477 -6.65479 6.88878 H 1 RES   0.0000
6515 H 1.03296 -11.1975 -0.534377 H 1 RES   0.0000
6516 H -6.07347 -2.99327 -12.0743 H 1 RES   0.0000
6517 H -13.0852 -14.2851 0.584149 H 1 RES   0.0000
6518 H 5.83265 -3.06937 -7.65189 H 1 RES   0.0000
6519 H 7.78423 -7.72978 3.37009 H 1 RES   0.0000
6520 H -5.91972 13.69 -4.82956 H 1 RES   0.0000
6521 H 14.5204 0.166143 7.26968 H 1 RES   0.0000
6522 H 6.54513 1.28054 -5.86151 H 1 RES   0.0000
6523 H 7.84628 -7.05782 6.10942 H 1 RES   0.0000
6524 H -0.316229 -5.37657 -3.3691 H 1 RES   0.0000
6525 H -0.0647052 -3.86167 1.57147 H 1 RES   0.0000
6526 H 4.69533 -3.81367 3.26229 H 1 RES   0.0000
6527 H 6.03962 14.6376 -8.17329 H 1 RES   0.0000
6528 H -13.0921 1.77143 -3.7131 H 1 RES   0.0000
6529 H 12.8307 -3.71524 0.284916 H 1 RES   0.0000
6530 H 7.99714 13.8859 14.0178 H 1 RES   0.0000
6531 H -10.206 8.40559 -14.259 H 1 RES   0.0000
6532 H 3.25011 -7.38678 -2.57359 H 1 RES   0.0000
6533 H 2.79687 9.02979 8.85173 H 1 RES   0.0000
6534 H -4.57443 -1.01845 13.0074 H 1 RES   0.0000
6535 H 6.53223 6.84023 -13.2299 H 1 RES   0.0000
6536 H -3.66758 11.1793 -4.91091 H 1 RES   0.0000
6537 H -6.57089 -2.01085 -11.103 H 1 RES   0.0000
6538 H -7.71367 -12.3437 -6.23038 H 1 RES   0.0000
6539 H 8.53788 12.1644 11.5141 H 1 RES   0.0000
6540 H -10.9075 0.782149 11.8311 H 1 RES   0.0000
6541 H 2.96211 -5.67001 -7.82464 H 1 RES   0.0000
6542 H -3.47286 0.0860826 2.39311 H 1 RES   0.0000
6543 H 13.4743 -5.97588 -3.41364 H 1 RES   0.0000
6544 H 0.569969 -14.4159 -0.640835 H 1 RES   0.0000
6545 H -9.91669 -5.27343 -11.4299 H 1 RES   0.0000
6546 H 7.24629 -6.92058 -4.13084 H 1 RES   0.0000
6547 H 11.5866 2.88595 11.2571 H 1 RES   0.0000
6548 H 0.922084 4.94039 13.2928 H 1 RES   0.0000
6549 H -3.58089 -11.2878 6.98212 H 1 RES   0.0000
6550 H -4.17184 -13.849 12.9035 H 1 RES   0.0000
6551 H 5.45991 6.63679 9.54883 H 1 RES   0.0000
6552 H 1.67611 -0.742661 -5.2552 H 1 RES   0.0000
6553 H 3.90966 8.52972 -9.24198 H 1 RES   0.0000
6554 H 8.39188 11.6727 7.89724 H 1 RES   0.0000
6555 H 2.34438 10.2704 -13.297 H 1 RES   0.0000
6556 H 7.05554 -13.8264 9.69034 H 1 RES   0.0000
6557 H -1.90764 11.1166 6.01559 H 1 RES   0.0000
6558 H 2.71095 -11.4094 8.97075 H 1 RES   0.0000
6559 H -6.40154 -5.41936 -6.43884 H 1 RES   0.0000
6560 H 14.7628 14.8418 2.36081 H 1 RES   0.0000
6561 H -3.43854 13.0884 13.1017 H 1 RES   0.0000
6562 H -6.98437 7.53834 12.0568 H 1 RES   0.0000
6563 H 7.07872 1.55123 -10.8994 H 1 RES   0.0000
6564 H -2.39134 9.32612 4.63969 H 1 RES   0.0000
6565 H 5.55871 9.68045 -6.8226 H 1 RES   0.0000
6566 H 14.4759 -3.60731 -13.4002 H 1 RES   0.0000
6567 H 5.40643 9.4627 1.08563 H 1 RES   0.0000
6568 H 2.28282 -4.25658 -11.5004 H 1 RES   0.0000
6569 H 11.0396 7.59752 9.09807 H 1 RES   0.0000
6570 H -11.9203 0.424547 -8.10168 H 1 RES   0.0000
6571 H 1.63336 11.1796 -0.941879 H 1 RES   0.0000
6572 H 13.9883 14.0282 13.2694 H 1 RES   0.0000
6573 H 7.25681 -12.2612 -0.0330058 H 1 RES   0.0000
6574 H 2.14213 -10.9675 10.2321 H 1 RES   0.0000
6575 H -6.8628 -14.814 -9.07591 H 1 RES   0.0000
6576 H 14.3593 11.0278 5.15232 H 1 RES   0.0000
6577 H -13.2036 4.03079 5.87725 H 1 RES   0.0000
6578 H 1.45258 -10.3199 5.39463 H 1 RES   0.0000
6579 H -4.00834 10.0674 -9.66199 H 1 RES   0.0000
6580 H -1.71805 -2.99272 13.6024 H 1 RES   0.0000
6581 H -4.78125 3.65742 -4.4499 H 1 RES   0.0000
6582 H 3.92802 0.671633 5.59783 H 1 RES   0.0000
6583 H 7.19519 6.08592 8.69113 H 1 RES   0.0000
6584 H 2.01998 7.3121 7.20692 H 1 RES   0.0000
6585 H -14.5271 7.56269 2.61982 H 1 RES   0.0000
6586 H 4.86713 -7.61028 -2.68547 H 1 RES   0.0000
6587 H -0.352896 11.5692 -13.9214 H 1 RES   0.0000
6588 H 6.34037 -0.42358 0.584539 H 1 RES   0.0000
6589 H 3.07976 -9.86044 0.397319 H 1 RES   0.0000
6590 H 5.24468 4.3875 7.12084 H 1 RES   0.0000
6591 H -1.70589 10.0095 -0.648648 H 1 RES   0.0000
6592 H -12.3103 -5.65649 3.60033 H 1 RES   0.0000
6593 H 13.8708 -11.4036 14.5744 H 1 RES   0.0000
6594 H -7.34228 8.27987 -13.9647 H 1 RES   0.0000
6595 H -6.19464 -12.8649 7.72071 H 1 RES   0.0000
6596 H -8.22043 11.1098 -1.08768 H 1 RES   0.0000
6597 H 6.20811 -7.10244 -6.46019 H 1 RES   0.0000
6598 H 4.77868 6.03296 6.86838 H 1 RES   0.0000
6599 H -14.0958 -1.52336 7.50026 H 1 RES   0.0000
6600 H -8.09313 -10.5752 8.19812 H 1 RES   0.0000
6601 H -14.1912 -1.66462 -7.2201 H 1 RES   0.0000
6602 H 8.69502 -7.62484 14.472 H 1 RES   0.0000
6603 H -14.3773 7.90086 1.53949 H 1 RES   0.0000
6604 H 14.2606 2.57467 -14.2146 H 1 RES   0.0000
6605 H 6.24075 -5.19074 -12.9907 H 1 RES   0.0000
6606 H -13.7332 0.0489365 3.75857 H 1 RES   0.0000
6607 H -2.63827 -2.62323 1.23846 H 1 RES   0.0000
6608 H -9.9477 0.52483 9.80481 H 1 RES   0.0000
6609 H 5.36592 11.8213 1.81433 H 1 RES   0.0000
6610 H -1.53104 -7.36042 4.86206 H 1 RES   0.0000
6611 H 12.0672 -11.7782 1.3547 H 1 RES   0.0000
6612 H 6.27738 -12.3997 -0.53508 H 1 RES   0.0000
6613 H 12.1462 -8.0899 11.8711 H 1 RES   0.0000
6614 H 12.5687 -9.36469 13.2186 H 1 RES   0.0000
6615 H 8.24916 10.3513 -3.61228 H 1 RES   0.0000
6616 H -13.7254 -11.7078 -11.0686 H 1 RES   0.0000
6617 H -14.0147 3.36634 2.0098 H 1 RES   0.0000
6618 H 6.97047 13.1319 -2.1368 H 1 RES   0.0000
6619 H 12.5446 -9.641 11.3524 H 1 RES   0.0000
6620 H 6.83598 -12.7331 -4.85959 H 1 RES   0.0000
6621 H -3.00028 -13.5641 -4.35526 H 1 RES   0.0000
6622 H -9.76434 -12.2083 -4.91994 H 1 RES   0.0000
6623 H -12.7849 14.484 -12.2602 H 1 RES   0.0000
6624 H -9.31032 -7.86438 8.90796 H 1 RES   0.0000
6625 H -6.68461 -4.31399 7.25468 H 1 RES   0.0000
6626 H 9.10606 13.4502 13.8726 H 1 RES   0.0000
6627 H 7.89335 12.2889 -13.0617 H 1 RES   0.0000
6628 H -1.40944 -5.04123 -6.06744 H 1 RES   0.0000
6629 H 7.43949 -12.6095 14.3484 H 1 RES   0.0000
6630 H -3.66804 -8.06281 -10.5828 H 1 RES   0.0000
6631 H 11.8161 10.1402 4.74653 H 1 RES   0.0000
6632 H 13.4103 8.58027 2.80127 H 1 RES   0.0000
6633 H 9.04487 -10.0477 -1.97702 H 1 RES   0.0000
6634 H -13.3185 2.99297 3.83754 H 1 RES   0.0000
6635 H -2.34071 -10.0791 8.59193 H 1 RES   0.0000
6636 H -11.6074 3.42899 3.297 H 1 RES   0.0000
6637 H 12.3659 6.53348 3.44345 H 1 RES   0.0000
6638 H 13.9217 -9.54476 -9.5686 H 1 RES   0.0000
6639 H 5.85556 14.7586 6.80559 H 1 RES   0.0000
6640 H 8.49921 -12.3575 7.90144 H 1 RES   0.0000
6641 H -8.22832 -2.56913 -11.5227 H 1 RES   0.0000
6642 H -3.01542 1.52643 8.60823 H 1 RES   0.0000
6643 H 11.4532 8.02157 0.23591 H 1 RES   0.0000
6644 H 12.971 8.73721 4.52748 H 1 RES   0.0000
6645 H -2.56797 -4.41436 -7.40031 H 1 RES   0.0000
6646 H 2.79285 12.7554 11.2489 H 1 RES   0.0000
6647 H 12.8859 4.44401 -9.94031 H 1 RES   0.0000
6648 H -10.4142 -0.328377 1.2967 H 1 RES   0.0000
6649 H -13.9746 0.753946 -6.81129 H 1 RES   0.0000
6650 H -13.8822 1.95679 10.9224 H 1 RES   0.0000
6651 H -4.14877 -4.27852 -9.31114 H 1 RES   0.0000
6652 H 1.47125 -8.29642 5.10255 H 1 RES   0.0000
6653 H -0.960343 -13.2735 4.54835 H 1 RES   0.0000
6654 H -1.88176 -1.41702 1.67018 H 1 RES   0.0000
6655 H -5.10938 -8.3788 11.371 H 1 RES   0.0000
6656 H 11.6184 5.38763 -11.7391 H 1 RES   0.0000
6657 H 11.0011 5.30815 -0.853085 H 1 RES   0.0000
6658 H -14.6939 -10.9414 -11.3519 H 1 RES   0.0000
6659 H 12.6122 -0.793255 -7.35085 H 1 RES   0.0000
6660 H 14.0363 -9.94507 5.66485 H 1 RES   0.0000
6661 H 10.7587 5.38484 6.4575 H 1 RES   0.0000
6662 H -7.92392 -10.0493 -8.03639 H 1 RES   0.0000
6663 H 6.94557 4.06536 -2.84925 H 1 RES   0.0000
6664 H 11.6616 1.65077 13.9552 H 1 RES   0.0000
6665 H 14.6883 -3.74468 13.2864 H 1 RES   0.0000
6666 H -0.0214536 -7.05773 -12.1719 H 1 RES   0.0000
6667 H -8.89061 13.3243 -5.39848 H 1 RES   0.0000
6668 H 9.0176 6.57401 11.4781 H 1 RES   0.0000
6669 H 13.1702 -12.1169 -2.54558 H 1 RES   0.0000
6670 H 2.07887 4.97204 7.93454 H 1 RES   0.0000
6671 H -12.4313 3.40916 -13.6554 H 1 RES   0.0000
6672 H 6.29327 -5.81168 -1.71487 H 1 RES   0.0000
6673 H 8.38227 10.9833 9.81214 H 1 RES   0.0000
6674 H -9.67063 10.5989 2.1263 H 1 RES   0.0000
6675 H -2.73014 3.07142 2.93889 H 1 RES   0.0000
6676 H -11.2874 11.9456 2.9883 H 1 RES   0.0000
6677 H 2.89289 5.92826 12.8416 H 1 RES   0.0000
6678 H -12.1369 -11.3177 5.05052 H 1 RES   0.0000
6679 H -13.1911 -9.40607 -11.8036 H 1 RES   0.0000
6680 H 5.17543 -1.40889 4.50215 H 1 RES   0.0000
6681 H -4.05174 13.2555 3.03872 H 1 RES   0.0000
6682 H 12.4763 -3.62834 -6.8485 H 1 RES   0.0000
6683 H -12.1601 6.96289 -6.89806 H 1 RES   0.0000
6684 H 1.8856 9.44345 8.49993 H 1 RES   0.0000
6685 H 3.23339 12.8714 5.86728 H 1 RES   0.0000
6686 H -2.31233 12.8163 5.83795 H 1 RES   0.0000
6687 H 6.12032 -2.67293 10.5769 H 1 RES   0.0000
6688 H 3.70708 -2.17788 1.60183 H 1 RES   0.0000
6689 H -9.65227 2.84324 12.5953 H 1 RES   0.0000
6690 H 8.66118 8.63098 4.73549 H 1 RES   0.0000
6691 H -4.15435 -13.2434 14.0501 H 1 RES   0.0000
6692 H -7.92958 5.80972 -6.85449 H 1 RES   0.0000
6693 H -14.4033 4.83518 -9.27001 H 1 RES   0.0000
6694 H 7.8454 6.50403 6.12828 H 1 RES   0.0000
6695 H -7.1266 2.18176 2.93674 H 1 RES   0.0000
6696 H -5.41752 4.79629 8.32734 H 1 RES   0.0000
6697 H 8.51878 -14.524 -6.74778 H 1 RES   0.0000
6698 H -11.2382 11.2883 -2.54316 H 1 RES   0.0000
6699 H -1.47834 3.77386 11.1619 H 1 RES   0.0000
6700 H -4.83011 -14.5832 3.19436 H 1 RES   0.0000
6701 H -5.10978 7.9713 -14.3403 H 1 RES   0.0000
6702 H -9.97887 -6.29506 -9.46025 H 1 RES   0.0000
6703 H 8.95028 -2.46731 -12.2443 H 1 RES   0.0000
6704 H 14.5139 2.6177 4.00446 H 1 RES   0.0000
6705 H 9.73441 3.7641 -11.1743 H 1 RES   0.0000
6706 H 3.55927 14.0711 10.6098 H 1 RES   0.0000
6707 H 11.8244 2.77435 8.19563 H 1 RES   0.0000
6708 H -13.3281 -3.83113 -6.90062 H 1 RES   0.0000
6709 H 5.06076 -3.08847 -11.7164 H 1 RES   0.0000
6710 H -10.785 6.60115 3.04403 H 1 RES   0.0000
6711 H 1.14947 7.73627 -4.45917 H 1 RES   0.0000
6712 H -1.90005 -0.902721 5.00544 H 1 RES   0.0000
6713 H 4.38269 6.46278 -5.95609 H 1 RES   0.0000
6714 H 14.2829 -4.70792 12.5929 H 1 RES   0.0000
6715 H -10.9594 -10.0277 13.4056 H 1 RES   0.0000
6716 H -11.1738 -1.46564 0.531827 H 1 RES   0.0000
6717 H -1.83302 -5.80197 -11.9256 H 1 RES   0.0000
6718 H 12.1108 9.34883 9.38643 H 1 RES   0.0000
6719 H 3.9501 5.02756 4.45897 H 1 RES   0.0000
6720 H 6.48919 -1.13155 -4.99509 H 1 RES   0.0000
6721 H 5.50391 7.22886 -2.02437 H 1 RES   0.0000
6722 H 11.1123 10.2205 -7.95116 H 1 RES   0.0000
6723 H 3.53765 10.5841 13.7351 H 1 RES   0.0000
6724 H 1.87782 -7.46524 2.53578 H 1 RES   0.0000
6725 H -12.1544 6.74556 4.41964 H 1 RES   0.0000
6726 H -2.6808 -14.0392 -0.261696 H 1 RES   0.0000
6727 H -12.3123 -3.1046 -0.439994 H 1 RES   0.0000
6728 H 8.21039 -5.51989 10.1511 H 1 RES   0.0000
6729 H 8.79436 10.9973 -1.22807 H 1 RES   0.0000
6730 H -5.28882 -10.1874 6.57701 H 1 RES   0.0000
6731 H -5.27225 -7.84856 -0.345231 H 1 RES   0.0000
6732 H -9.19547 -9.25533 14.7141 H 1 RES   0.0000
6733 H 2.17367 1.01676 10.0315 H 1 RES   0.0000
6734 H 3.5856 2.61635 -3.49518 H 1 RES   0.0000
6735 H -10.687 -14.5361 -11.954 H 1 RES   0.0000
6736 H 7.53872 -14.5107 -6.15226 H 1 RES   0.0000
6737 H 5.03768 9.48423 -0.961219 H 1 RES   0.0000
6738 H -11.8646 13.416 2.89742 H 1 RES   0.0000
6739 H 7.26057 -4.42695 6.05327 H 1 RES   0.0000
6740 H -14.4932 -11.8665 -4.24459 H 1 RES   0.0000
6741 H -8.68327 3.63424 7.18741 H 1 RES   0.0000
6742 H -13.315 9.12642 -6.36084 H 1 RES   0.0000
6743 H -12.9871 1.33649 10.9531 H 1 RES   0.0000
6744 H 6.45243 -0.205335 -3.81238 H 1 RES   0.0000
6745 H 10.1138 11.4372 -10.0367 H 1 RES   0.0000
6746 H -5.77437 5.35611 -12.7726 H 1 RES   0.0000
6747 H -13.7024 -7.42853 -5.19944 H 1 RES   0.0000
6748 H -3.16639 -14.2712 4.73846 H 1 RES   0.0000
6749 H 5.00031 -4.35276 9.32525 H 1 RES   0.0000
6750 H -9.66031 14.8009 3.04503 H 1 RES   0.0000
6751 H -3.47194 -8.97716 12.8279 H 1 RES   0.0000
6752 H 4.98049 3.78854 10.8244 H 1 RES   0.0000
6753 H -4.36983 -13.6346 1.15861 H 1 RES   0.0000
6754 H -2.14144 -1.79148 -3.35292 H 1 RES   0.0000
6755 H -11.0127 -14.2109 7.57876 H 1 RES   0.0000
6756 H 3.54026 -3.84219 8.01085 H 1 RES   0.0000
6757 H 11.2658 0.0536416 13.0111 H 1 RES   0.0000
6758 H -13.8956 12.2121 -7.79997 H 1 RES   0.0000
6759 H 5.28446 3.85981 12.2344 H 1 RES   0.0000
6760 H -12.0048 13.7819 -1.64814 H 1 RES   0.0000
6761 H 0.999929 11.6717 -7.0266 H 1 RES   0.0000
6762 H -0.21246 -13.5301 -5.7524 H 1 RES   0.0000
6763 H 13.5697 5.2094 0.308391 H 1 RES   0.0000
6764 H 2.51841 -6.72415 -12.7212 H 1 RES   0.0000
6765 H -3.4204 -10.1979 -6.0204 H 1 RES   0.0000
6766 H -4.34142 -7.97466 5.58624 H 1 RES   0.0000
6767 H 6.67332 -7.31458 -1.19984 H 1 RES   0.0000
6768 H -9.85588 -1.99461 7.34218 H 1 RES   0.0000
6769 H -13.5477 -7.12309 6.59685 H 1 RES   0.0000
6770 H 2.69933 6.14582 -1.83058 H 1 RES   0.0000
6771 H 11.7749 0.670111 9.8455 H 1 RES   0.0000
6772 H 6.47126 14.309 8.33299 H 1 RES   0.0000
6773 H 1.51316 -9.54948 7.64303 H 1 RES   0.0000
6774 H -2.55685 -12.7536 10.8706 H 1 RES   0.0000
6775 H -14.1245 5.8642 -5.94388 H 1 RES   0.0000
6776 H -2.95482 -0.473556 3.27606 H 1 RES   0.0000
6777 H -0.30454 -11.8556 -13.1048 H 1 RES   0.0000
6778 H 9.6693 4.87344 5.27011 H 1 RES   0.0000
6779 H 3.4587 -6.25725 8.43034 H 1 RES   0.0000
6780 H 5.7653 -8.30558 6.40358 H 1 RES   0.0000
6781 H -12.4921 4.98591 4.85061 H 1 RES   0.0000
6782 H 3.31288 12.3258 1.60753 H 1 RES   0.0000
6783 H 0.414244 -14.1635 -1.90927 H 1 RES   0.0000
6784 H -2.12891 -2.32352 2.6734 H 1 RES   0.0000
6785 H 6.98118 -1.00503 0.0556842 H 1 RES   0.0000
6786 H -8.83366 11.6496 11.811 H 1 RES   0.0000
6787 H 7.34711 -1.13801 14.1199 H 1 RES   0.0000
6788 H 14.5957 14.4876 -6.99233 H 1 RES   0.0000
6789 H -6.5207 -12.6847 5.64281 H 1 RES   0.0000
6790 H -7.77001 -8.51325 7.28202 H 1 RES   0.0000
6791 H -3.76437 9.10782 -13.4837 H 1 RES   0.0000
6792 H -1.66112 3.40501 12.4333 H 1 RES   0.0000
6793 H 8.91107 -6.32766 4.42549 H 1 RES   0.0000
6794 H 1.6234 6.84115 2.79844 H 1 RES   0.0000
6795 H -10.2824 -14.5374 -5.96083 H 1 RES   0.0000
6796 H -11.3174 -9.48518 12.5993 H 1 RES   0.0000
6797 H 8.32215 12.1482 -5.18255 H 1 RES   0.0000
6798 H 11.4598 9.9684 -1.62022 H 1 RES   0.0000
6799 H -9.77929 -14.2185 -7.96073 H 1 RES   0.0000
6800 H 2.03114 -7.37724 -7.84872 H 1 RES   0.0000
6801 H 14.2496 -3.44504 11.4653 H 1 RES   0.0000
6802 H 5.78817 7.95413 -9.52453 H 1 RES   0.0000
6803 H -4.63453 -13.2416 5.94118 H 1 RES   0.0000
6804 H 0.384322 14.6458 0.352998 H 1 RES   0.0000
6805 H 5.31535 3.25259 -10.8853 H 1 RES   0.0000
6806 H 2.93009 10.7292 11.9695 H 1 RES   0.0000
6807 H -0.366659 9.34313 -4.1169 H 1 RES   0.0000
6808 H -3.56842 0.255822 7.43532 H 1 RES   0.0000
6809 H 14.6868 9.37937 0.766349 H 1 RES   0.0000
6810 H -3.81853 5.54829 -13.577 H 1 RES   0.0000
6811 H -6.54819 0.463396 10.0001 H 1 RES   0.0000
6812 H 14.2191 -5.67592 0.599648 H 1 RES   0.0000
6813 H 8.97146 0.532809 14.3772 H 1 RES   0.0000
6814 H 9.71542 -7.79004 7.0188 H 1 RES   0.0000
6815 H -13.7423 12.1409 -0.3152 H 1 RES   0.0000
6816 H 14.3719 12.9177 5.50894 H 1 RES   0.0000
6817 H -9.00436 0.803102 12.9295 H 1 RES   0.0000
6818 H -11.1796 -6.16993 -9.97899 H 1 RES   0.0000
6819 H -6.23892 -11.3796 8.69506 H 1 RES   0.0000
6820 H -1.19819 -1.10122 0.806655 H 1 RES   0.0000
6821 H -0.749601 13.3352 9.75123 H 1 RES   0.0000
6822 H 2.84134 3.25824 6.38315 H 1 RES   0.0000
6823 H -0.439563 3.73343 2.46954 H 1 RES   0.0000
6824 H -5.55735 14.3873 11.8308 H 1 RES   0.0000
6825 H 7.30593 -4.31077 -8.39417 H 1 RES   0.0000
6826 H 0.948025 3.99952 12.6985 H 1 RES   0.0000
6827 H -7.30745 1.36696 -1.37533 H 1 RES   0.0000
6828 H 14.4959 3.96715 -0.803916 H 1 RES   0.0000
6829 H 6.28597 -3.4581 -13.1733 H 1 RES   0.0000
6830 H -4.92299 -13.3572 -5.49471 H 1 RES   0.0000
6831 H -10.9823 -13.2543 -10.4857 H 1 RES   0.0000
6832 H -11.6493 4.39736 -2.06243 H 1 RES   0.0000
6833 H -0.544366 -6.97245 6.8975 H 1 RES   0.0000
6834 H -12.2662 -6.83435 8.62582 H 1 RES   0.0000
6835 H 6.86266 -7.59587 14.4451 H 1 RES   0.0000
6836 H 6.02013 -7.15045 -2.57668 H 1 RES   0.0000
6837 H -11.1977 8.63358 -11.9697 H 1 RES   0.0000
6838 H -14.1257 14.5094 -9.24167 H 1 RES   0.0000
6839 H -8.21474 2.01084 -1.96974 H 1 RES   0.0000
6840 H -2.69416 -8.03854 -2.69107 H 1 RES   0.0000
6841 H -4.79269 -13.4569 -7.64561 H 1 RES   0.0000
6842 H 9.38943 -8.13905 -3.65831 H 1 RES   0.0000
6843 H -11.8814 -13.0594 5.44936 H 1 RES   0.0000
6844 H -4.72383 -4.36107 -12.6132 H 1 RES   0.0000
6845 H -14.1544 7.3597 8.6814 H 1 RES   0.0000
6846 H 2.7427 6.76079 3.30702 H 1 RES   0.0000
6847 H 10.9568 10.8814 12.1449 H 1 RES   0.0000
6848 H 2.14536 1.43209 -7.07115 H 1 RES   0.0000
6849 H 0.0135522 -11.1463 10.5575 H 1 RES   0.0000
6850 H -3.70932 -14.5878 -9.63896 H 1 RES   0.0000
6851 H 1.98435 10.1504 -7.82558 H 1 RES   0.0000
6852 H -4.29747 12.1265 13.3031 H 1 RES   0.0000
6853 H 0.680547 -7.75787 -3.62993 H 1 RES   0.0000
6854 H 6.78462 6.23681 12.8413 H 1 RES   0.0000
6855 H -0.788309 -12.1763 -11.6696 H 1 RES   0.0000
6856 H 5.51223 11.6571 6.20462 H 1 RES   0.0000
6857 H 5.75782 -8.23131 -0.425538 H 1 RES   0.0000
6858 H -6.68119 12.2328 1.39724 H 1 RES   0.0000
6859 H 9.85427 5.26188 14.1645 H 1 RES   0.0000
6860 H 9.6473 11.325 14.7306 H 1 RES   0.0000
6861 H 11.3847 4.21143 -11.6545 H 1 RES   0.0000
6862 H 13.3714 12.7237 -11.7664 H 1 RES   0.0000
6863 H 13.6823 13.6038 -8.5167 H 1 RES   0.0000
6864 H -13.5247 7.58089 -11.0598 H 1 RES   0.0000
6865 H 11.5764 5.89601 1.53007 H 1 RES   0.0000
6866 H -10.311 -10.5181 12.8183 H 1 RES   0.0000
6867 H -12.7421 11.1673 11.7786 H 1 RES   0.0000
6868 H -9.17805 -11.8185 11.4904 H 1 RES   0.0000
6869 H 6.85541 -3.42191 14.0888 H 1 RES   0.0000
6870 H -2.85171 -11.3276 -1.87241 H 1 RES   0.0000
6871 H -12.3924 -10.3556 4.63731 H 1 RES   0.0000
6872 H -7.46647 -5.97068 -10.0082 H 1 RES   0.0000
6873 H -1.58693 -12.4233 9.03181 H 1 RES   0.0000
6874 H -12.1057 -2.87239 -7.7938 H 1 RES   0.0000
6875 H -11.4353 5.2435 -4.70718 H 1 RES   0.0000
6876 H 9.57717 10.4012 -5.86044 H 1 RES   0.0000
6877 H -8.93795 -12.3969 -8.77625 H 1 RES   0.0000
6878 H 13.838 13.0768 -1.80723 H 1 RES   0.0000
6879 H -1.59621 12.2685 6.89853 H 1 RES   0.0000
6880 H 8.11726 -0.886455 5.32882 H 1 RES   0.0000
6881 H -12.6565 1.94336 -14.0271 H 1 RES   0.0000
6882 H -10.2548 -11.1059 -5.65092 H 1 RES   0.0000
6883 H 6.89625 11.9232 14.7754 H 1 RES   0.0000
6884 H 9.88485 12.8182 11.9766 H 1 RES   0.0000
6885 H 1.70847 -10.6669 -8.62316 H 1 RES   0.0000
6886 H -0.369699 1.9237 0.730408 H 1 RES   0.0000
6887 H -11.9999 -2.70918 9.82888 H 1 RES   0.0000
6888 H -6.82506 0.187821 14.7426 H 1 RES   0.0000
6889 H 6.66246 -6.6389 -5.04961 H 1 RES   0.0000
6890 H 9.29297 -7.86408 -8.31754 H 1 RES   0.0000
6891 H 4.29331 -6.58715 -11.8261 H 1 RES   0.0000
6892 H 2.15416 3.90117 7.43232 H 1 RES   0.0000
6893 H 3.17999 -14.8347 12.3903 H 1 RES   0.0000
6894 H 2.01261 -8.25846 -6.23519 H 1 RES   0.0000
6895 H 7.27284 -2.32325 0.504659 H 1 RES   0.0000
6896 H -14.7963 -8.60282 2.02715 H 1 RES   0.0000
6897 H 6.35756 -14.3014 7.98602 H 1 RES   0.0000
6898 H 3.61884 -3.61633 9.24881 H 1 RES   0.0000
6899 H -4.42296 -8.15781 -3.57028 H 1 RES   0.0000
6900 H -7.43253 7.93508 4.11103 H 1 RES   0.0000
6901 H -3.0799 5.40832 13.5148 H 1 RES   0.0000
6902 H 13.4046 8.45796 -6.59333 H 1 RES   0.0000
6903 H 1.92165 2.73084 9.94614 H 1 RES   0.0000
6904 H 7.94878 10.1843 14.6173 H 1 RES   0.0000
6905 H -11.3298 -13.9574 -6.8876 H 1 RES   0.0000
6906 H 1.98687 -10.8858 -3.00825 H 1 RES   0.0000
6907 H 3.25231 -12.542 -8.57985 H 1 RES   0.0000
6908 H 13.7658 -12.4831 14.506 H 1 RES   0.0000
6909 H 13.6246 -1.31532 0.369208 H 1 RES   0.0000
6910 H 11.5958 -13.5039 -0.585946 H 1 RES   0.0000
6911 H -8.42664 -6.41096 0.697052 H 1 RES   0.0000
6912 H 6.44569 10.2051 11.4976 H 1 RES   0.0000
6913 H 9.37393 8.07699 -8.32287 H 1 RES   0.0000
6914 H 7.80812 -4.76137 -1.1956 H 1 RES   0.0000
6915 H -0.774896 -12.7673 -9.08202 H 1 RES   0.0000
6916 H -7.35717 9.00252 8.7238 H 1 RES   0.0000
6917 H -5.56492 -10.503 -1.20279 H 1 RES   0.0000
6918 H -1.97327 -1.36836 -9.02224 H 1 RES   0.0000
6919 H 13.5762 -0.527504 11.4822 H 1 RES   0.0000
6920 H -10.0095 -3.95057 6.802 H 1 RES   0.0000
6921 H -13.9645 -4.90306 10.9643 H 1 RES   0.0000
6922 H -1.00507 6.58027 6.63449 H 1 RES   0.0000
6923 H -13.5634 9.57994 0.355425 H 1 RES   0.0000
6924 H 0.98917 -3.23355 2.85828 H 1 RES   0.0000
6925 H 7.59741 7.35257 -9.19737 H 1 RES   0.0000
6926 H 10.8534 -0.607217 -2.10906 H 1 RES   0.0000
6927 H -10.2694 -11.5146 8.81884 H 1 RES   0.0000
6928 H -1.71549 -10.8104 -11.8439 H 1 RES   0.0000
6929 H 6.25677 8.92938 6.03079 H 1 RES   0.0000
6930 H 13.6555 -6.24505 -12.0707 H 1 RES   0.0000
6931 H 5.16605 -2.79425 -8.44053 H 1 RES   0.0000
6932 H 0.802348 0.0480453 -12.2537 H 1 RES   0.0000
6933 H -4.50516 -0.401376 2.55758 H 1 RES   0.0000
6934 H -13.4849 14.4254 4.97994 H 1 RES   0.0000
6935 H -7.00363 6.06157 -11.195 H 1 RES   0.0000
6936 H 14.8172 0.216112 -2.49468 H 1 RES   0.0000
6937 H -0.933033 -2.0085 -4.62712 H 1 RES   0.0000
6938 H 11.3749 8.66728 12.3868 H 1 RES   0.0000
6939 H -4.88573 -12.3357 -12.5407 H 1 RES   0.0000
6940 H -2.12091 9.93514 -3.7593 H 1 RES   0.0000
6941 H 13.1306 -11.7463 4.44198 H 1 RES   0.0000
6942 H 10.5478 4.62885 -4.18297 H 1 RES   0.0000
6943 H -1.60507 11.9812 12.8826 H 1 RES   0.0000
6944 H 9.34666 11.3556 -1.99022 H 1 RES   0.0000
6945 H 10.1229 -13.1253 -6.73915 H 1 RES   0.0000
6946 H -5.57421 2.75286 3.69327 H 1 RES   0.0000
6947 H 11.6217 11.7989 -2.0895 H 1 RES   0.0000
6948 H 12.1029 -12.7726 -3.77253 H 1 RES   0.0000
6949 H -8.67257 12.1954 1.96642 H 1 RES   0.0000
6950 H 1.05872 6.02432 -13.3651 H 1 RES   0.0000
6951 H 12.9826 3.68104 3.99008 H 1 RES   0.0000
6952 H -9.51237 7.88099 -2.38982 H 1 RES   0.0000
6953 H 1.20261 2.33596 9.20048 H 1 RES   0.0000
6954 H 2.66351 -14.5133 0.670517 H 1 RES   0.0000
6955 H -0.925753 9.06359 11.829 H 1 RES   0.0000
6956 H -9.3057 -11.3978 -5.80481 H 1 RES   0.0000
6957 H 13.4814 -1.06488 12.3866 H 1 RES   0.0000
6958 H -5.02782 10.8837 7.14924 H 1 RES   0.0000
6959 H -0.0931279 6.78756 10.2348 H 1 RES   0.0000
6960 H -0.64663 -8.38406 -14.5559 H 1 RES   0.0000
6961 H 0.655199 -2.93906 1.76449 H 1 RES   0.0000
6962 H -3.28719 10.0696 4.14994 H 1 RES   0.0000
6963 H 5.89093 -5.20297 2.32846 H 1 RES   0.0000
6964 H 7.92864 -12.851 -2.40366 H 1 RES   0.0000
6965 H 1.99391 -2.31857 -0.216584 H 1 RES   0.0000
6966 H -2.6828 -0.695372 13.3555 H 1 RES   0.0000
6967 H -6.00374 -8.99113 -6.55598 H 1 RES   0.0000
6968 H 14.1505 8.9227 -2.84727 H 1 RES   0.0000
6969 H 8.12515 8.3779 -11.7551 H 1 RES   0.0000
6970 H -1.08807 10.8743 -11.4818 H 1 RES   0.0000
6971 H -13.8501 -13.5009 -13.4595 H 1 RES   0.0000
6972 H 12.4968 1.0635 -12.1189 H 1 RES   0.0000
6973 H -9.89619 -8.67131 14.1703 H 1 RES   0.0000
6974 H -13.9975 -7.1922 -14.3697 H 1 RES   0.0000
6975 H -13.2647 -14.6718 -3.11071 H 1 RES   0.0000
6976 H -3.60181 -14.6085 -5.88119 H 1 RES   0.0000
6977 H -8.75584 -4.16933 -3.98812 H 1 RES   0.0000
6978 H -0.000525508 -4.21373 -7.68948 H 1 RES   0.0000
6979 H -3.25607 11.4622 -3.38498 H 1 RES   0.0000
6980 H -13.3186 13.7128 3.27112 H 1 RES   0.0000
6981 H -3.43101 8.91954 -5.82932 H 1 RES   0.0000
6982 H -8.48854 7.81867 4.70748 H 1 RES   0.0000
6983 H -12.8895 6.22014 -7.92786 H 1 RES   0.0000
6984 H -14.3394 -3.26826 -1.3335 H 1 RES   0.0000
6985 H -5.75271 -9.98961 -5.81298 H 1 RES   0.0000
6986 H 3.14827 3.31867 4.41278 H 1 RES   0.0000
6987 H -1.44088 -0.980735 -5.68959 H 1 RES   0.0000
6988 H -5.82167 -6.39406 -1.53249 H 1 RES   0.0000
6989 H 8.70139 -7.76488 10.3118 H 1 RES   0.0000
6990 H 0.470405 11.1105 -14.4129 H 1 RES   0.0000
6991 H -2.6771 -5.00459 -0.972615 H 1 RES   0.0000
6992 H 2.49361 -3.08923 2.68285 H 1 RES   0.0000
6993 H 11.1964 -12.397 -2.64746 H 1 RES   0.0000
6994 H -13.6683 10.3078 10.2112 H 1 RES   0.0000
6995 H -13.2738 6.32803 -5.41938 H 1 RES   0.0000
6996 H -1.50146 14.1125 -3.86408 H 1 RES   0.0000
6997 H -6.12023 3.11822 -5.0618 H 1 RES   0.0000
6998 H -8.13391 0.278923 -7.11606 H 1 RES   0.0000
6999 H 7.08704 -10.2275 -9.11639 H 1 RES   0.0000
7000 H -6.27691 -9.34593 -10.1313 H 1 RES   0.0000
7001 H -13.7832 1.20744 8.62293 H 1 RES   0.0000
7002 H 6.59055 -8.84298 9.54197 H 1 RES   0.0000
7003 H 7.80832 0.733965 -1.87447 H 1 RES   0.0000
7004 H -5.79319 -14.6828 3.32291 H 1 RES   0.0000
7005 H 7.11651 4.94799 -3.35776 H 1 RES   0.0000
7006 H -4.19652 8.44523 -6.78846 H 1 RES   0.0000
7007 H 14.4544 5.41816 2.98617 H 1 RES   0.0000
7008 H 0.419359 -1.443 -14.112 H 1 RES   0.0000
7009 H 2.52899 8.65538 2.22811 H 1 RES   0.0000
7010 H 6.84965 3.08168 -9.1998 H 1 RES   0.0000
7011 H 1.80952 3.61674 -10.7213 H 1 RES   0.0000
7012 H 1.27184 3.82282 -4.27247 H 1 RES   0.0000
7013 H -0.705973 10.2026 10.0673 H 1 RES   0.0000
7014 H -12.226 -0.135507 11.5664 H 1 RES   0.0000
7015 H 9.00501 9.32132 -4.14591 H 1 RES   0.0000
7016 H -13.4433 2.57608 14.1275 H 1 RES   0.0000
7017 H 9.98591 10.4347 -13.3484 H 1 RES   0.0000
7018 H 0.75007 1.18681 0.745396 H 1 RES   0.0000
7019 H -8.91291 -8.91765 -7.60702 H 1 RES   0.0000
7020 H -4.13688 -0.446746 -4.778 H 1 RES   0.0000
7021 H 13.1867 -1.61247 -9.16318 H 1 RES   0.0000
7022 H 14.8002 -10.8198 -2.37035 H 1 RES   0.0000
7023 H -7.98503 -4.65876 6.22131 H 1 RES   0.0000
7024 H -13.7727 4.27075 14.1284 H 1 RES   0.0000
7025 H 10.7569 -6.19726 -8.48822 H 1 RES   0.0000
7026 H -8.65189 -4.01969 6.77599 H 1 RES   0.0000
7027 H -13.7914 14.7601 0.42051 H 1 RES   0.0000
7028 H 13.2709 2.83852 10.1664 H 1 RES   0.0000
7029 H -2.21474 1.63868 13.8359 H 1 RES   0.0000
7030 H 12.6508 -10.3007 -8.12303 H 1 RES   0.0000
7031 H -13.1096 -9.81754 2.93201 H 1 RES   0.0000
7032 H -0.495553 -14.6095 -2.83908 H 1 RES   0.0000
7033 H -8.82576 -14.2779 -2.75908 H 1 RES   0.0000
7034 H 6.3716 5.56603 2.80476 H 1 RES   0.0000
7035 H -13.5337 7.40939 -5.4921 H 1 RES   0.0000
7036 H 10.7548 9.81293 -5.34533 H 1 RES   0.0000
7037 H -4.04363 7.32026 3.85563 H 1 RES   0.0000
7038 H -9.11916 -3.25623 -5.62463 H 1 RES   0.0000
7039 H -1.15846 6.7685 2.17846 H 1 RES   0.0000
7040 H 2.60188 -7.49401 -6.75152 H 1 RES   0.0000
7041 H -3.58601 -7.29184 8.153 H 1 RES   0.0000
7042 H -6.70642 -13.0005 -11.0797 H 1 RES   0.0000
7043 H 12.9389 -3.08853 -5.47304 H 1 RES   0.0000
7044 H -11.6077 -13.8887 -11.6186 H 1 RES   0.0000
7045 H -12.0355 7.0398 3.23976 H 1 RES   0.0000
7046 H 10.0766 0.668198 -14.5318 H 1 RES   0.0000
7047 H 3.93552 5.0127 9.99607 H 1 RES   0.0000
7048 H -5.67229 0.486984 -0.278327 H 1 RES   0.0000
7049 H 9.47518 6.76828 -1.93949 H 1 RES   0.0000
7050 H 9.81545 -13.344 -12.2379 H 1 RES   0.0000
7051 H 11.6837 12.3395 12.8307 H 1 RES   0.0000
7052 H 4.99402 -0.133233 -13.7848 H 1 RES   0.0000
7053 H 5.20984 14.5469 -5.45085 H 1 RES   0.0000
7054 H 3.50729 -2.37076 10.6822 H 1 RES   0.0000
7055 H -4.01301 -6.18445 7.10925 H 1 RES   0.0000
7056 H -6.0879 -4.66873 -10.6578 H 1 RES   0.0000
7057 H -8.75476 2.75867 -8.6991 H 1 RES   0.0000
7058 H -12.7881 6.66284 -4.15191 H 1 RES   0.0000
7059 H 5.62494 -13.5302 -11.555 H 1 RES   0.0000
7060 H 9.52756 -1.68637 -1.59763 H 1 RES   0.0000
7061 H 5.32628 11.8803 -3.70595 H 1 RES   0.0000
7062 H -3.53929 8.4623 -7.72391 H 1 RES   0.0000
7063 H -8.59482 6.08636 -8.65065 H 1 RES   0.0000
7064 H -1.92179 13.4343 9.07532 H 1 RES   0.0000
7065 H 7.07466 12.4533 9.32289 H 1 RES   0.0000
7066 H -11.4161 0.213025 -2.38653 H 1 RES   0.0000
7067 H 1.10962 3.83992 3.66755 H 1 RES   0.0000
7068 H -13.6377 -12.3891 -13.9648 H 1 RES   0.0000
7069 H 0.824727 -11.3017 -8.1013 H 1 RES   0.0000
7070 H -12.9052 12.8192 14.5156 H 1 RES   0.0000
7071 H -8.68595 -5.21749 1.31186 H 1 RES   0.0000
7072 H 9.72346 -9.04624 -7.159 H 1 RES   0.0000
7073 H 3.62956 -0.240779 -4.69307 H 1 RES   0.0000
7074 H -6.88268 14.3644 2.32271 H 1 RES   0.0000
7075 H 13.376 10.0055 -9.84296 H 1 RES   0.0000
7076 H -9.35634 12.4203 8.90213 H 1 RES   0.0000
7077 H 11.7582 9.34447 10.3762 H 1 RES   0.0000
7078 H 3.67284 -3.68935 -3.58845 H 1 RES   0.0000
7079 H -5.17363 -5.41386 10.7189 H 1 RES   0.0000
7080 H 3.11088 -9.3177 12.0806 H 1 RES   0.0000
7081 H -11.209 10.9493 3.94744 H 1 RES   0.0000
7082 H 7.6487 5.68577 12.4302 H 1 RES   0.0000
7083 H -12.0151 9.01877 -4.87055 H 1 RES   0.0000
7084 H 4.11523 13.7268 -9.66746 H 1 RES   0.0000
7085 H -7.66121 -6.12797 -0.531746 H 1 RES   0.0000
7086 H -14.6608 12.9414 4.72432 H 1 RES   0.0000
7087 H 7.77181 -4.72096 -10.6265 H 1 RES   0.0000
7088 H -6.01576 9.39418 5.80226 H 1 RES   0.0000
7089 H 10.5951 -2.97059 -5.05748 H 1 RES   0.0000
7090 H 3.66738 -9.5674 -5.3715 H 1 RES   0.0000
7091 H 5.14698 1.92398 -12.2486 H 1 RES   0.0000
7092 H -2.66286 -11.2474 8.22022 H 1 RES   0.0000
7093 H -11.4783 2.21244 7.02653 H 1 RES   0.0000
7094 H -6.26798 10.8524 -5.78764 H 1 RES   0.0000
7095 H 3.77683 4.53749 5.96103 H 1 RES   0.0000
7096 H 8.37163 -8.37958 -2.999 H 1 RES   0.0000
7097 H -0.645724 0.606678 -2.97316 H 1 RES   0.0000
7098 H -14.0573 0.762867 1.77916 H 1 RES   0.0000
7099 H 8.89182 9.7785 -1.60106 H 1 RES   0.0000
7100 H -12.8647 14.274 -6.69647 H 1 RES   0.0000
7101 H 9.39138 -8.83903 -1.9196 H 1 RES   0.0000
7102 H -5.20199 -10.9517 8.60636 H 1 RES   0.0000
7103 H -11.9824 14.1568 14.5391 H 1 RES   0.0000
7104 H -11.0647 14.679 -14.7839 H 1 RES   0.0000
7105 H 14.4531 -1.94048 -6.75279 H 1 RES   0.0000
7106 H 2.23382 1.64375 -11.7572 H 1 RES   0.0000
7107 H 10.3205 6.88693 -8.63984 H 1 RES   0.0000
7108 H 7.47449 -7.94339 -4.50997 H 1 RES   0.0000
7109 H 11.3132 -2.21503 -9.95435 H 1 RES   0.0000
7110 H 11.1461 -4.61002 11.2448 H 1 RES   0.0000
7111 H 10.5857 12.0096 -9.30239 H 1 RES   0.0000
7112 H 5.76131 5.0794 -7.88673 H 1 RES   0.0000
7113 H -13.7814 -1.34467 2.31656 H 1 RES   0.0000
7114 H 7.92422 -14.166 0.951391 H 1 RES   0.0000
7115 H -1.13137 7.14005 -4.85308 H 1 RES   0.0000
7116 H 8.38285 5.57448 8.86929 H 1 RES   0.0000
7117 H -2.31133 7.46156 -4.8253 H 1 RES   0.0000
7118 H 2.44899 13.4336 -6.07066 H 1 RES   0.0000
7119 H 10.9074 6.22107 4.16999 H 1 RES   0.0000
7120 H -7.96486 9.91579 6.35618 H 1 RES   0.0000
7121 H 11.2843 -2.48158 12.3953 H 1 RES   0.0000
7122 H 3.36418 -3.76458 -9.62121 H 1 RES   0.0000
7123 H 14.6573 9.48828 11.904 H 1 RES   0.0000
7124 H 12.6094 12.9462 -8.51491 H 1 RES   0.0000
7125 H 5.60955 -3.93718 -1.98714 H 1 RES   0.0000
7126 H -7.72006 6.40858 -7.939 H 1 RES   0.0000
7127 H -2.93293 -9.44702 2.09148 H 1 RES   0.0000
7128 H 6.26409 1.76279 14.2765 H 1 RES   0.0000
7129 H 3.81524 -1.02478 4.01685 H 1 RES   0.0000
7130 H -3.50323 10.8577 -0.383844 H 1 RES   0.0000
7131 H 4.62634 -14.4588 1.06864 H 1 RES   0.0000
7132 H -4.70433 0.213988 -5.37283 H 1 RES   0.0000
7133 H -5.33094 5.00129 -1.43566 H 1 RES   0.0000
7134 H -2.01872 -11.9868 -12.1986 H 1 RES   0.0000
7135 H -0.756082 1.0589 -14.008 H 1 RES   0.0000
7136 H 4.84923 6.05414 -13.9755 H 1 RES   0.0000
7137 H -1.1445 10.1055 -3.96018 H 1 RES   0.0000
7138 H -0.694938 10.8181 11.4876 H 1 RES   0.0000
7139 H 5.81501 7.83705 -14.2776 H 1 RES   0.0000
7140 H -4.73463 -7.18851 -1.19181 H 1 RES   0.0000
7141 H -11.1618 -5.66128 -3.88634 H 1 RES   0.0000
7142 H 9.31423 10.6373 -3.43511 H 1 RES   0.0000
7143 H -8.44883 1.50621 7.87086 H 1 RES   0.0000
7144 H -0.198656 -5.70311 -12.6894 H 1 RES   0.0000
7145 H 13.2524 -7.16911 -13.1839 H 1 RES   0.0000
7146 H -6.79523 -11.6861 11.0973 H 1 RES   0.0000
7147 H -0.634187 -1.61854 12.7121 H 1 RES   0.0000
7148 H -2.19444 9.30399 6.52274 H 1 RES   0.0000
7149 H -11.6216 -4.20473 8.76394 H 1 RES   0.0000
7150 H 3.20335 -7.16698 10.854 H 1 RES   0.0000
7151 H -11.481 -12.2053 12.0189 H 1 RES   0.0000
7152 H 0.943397 1.79121 7.21735 H 1 RES   0.0000
7153 H -8.26069 -4.64172 -6.51216 H 1 RES   0.0000
7154 H -6.07021 13.3235 -14.7839 H 1 RES   0.0000
7155 H 3.82201 -5.79812 -4.08284 H 1 RES   0.0000
7156 H 0.681531 -10.8511 12.9414 H 1 RES   0.0000
7157 H -5.03442 1.27011 -4.34179 H 1 RES   0.0000
7158 H 12.9278 -12.5628 -7.73802 H 1 RES   0.0000
7159 H 9.54928 -3.37058 12.4351 H 1 RES   0.0000
7160 H -12.264 3.90162 -1.03827 H 1 RES   0.0000
7161 H 3.19442 -4.43589 -11.7973 H 1 RES   0.0000
7162 H -5.25031 -10.8546 -4.46313 H 1 RES   0.0000
7163 H -4.37029 1.3687 8.82626 H 1 RES   0.0000
7164 H -0.23336 -1.90757 1.72144 H 1 RES   0.0000
7165 H -12.3399 11.285 -5.63676 H 1 RES   0.0000
7166 H -7.95808 -10.3597 1.88743 H 1 RES   0.0000
7167 H -12.5062 -12.0459 4.35431 H 1 RES   0.0000
7168 H -4.71013 8.35575 9.27245 H 1 RES   0.0000
7169 H 12.2701 11.5271 5.83145 H 1 RES   0.0000
7170 H -0.586297 -7.19834 -2.07231 H 1 RES   0.0000
7171 H 12.965 -8.94798 -5.70753 H 1 RES   0.0000
7172 H 8.60426 -0.188147 9.20794 H 1 RES   0.0000
7173 H 14.0732 9.05912 1.84073 H 1 RES   0.0000
7174 H -10.0648 -10.0577 5.30225 H 1 RES   0.0000
7175 H 14.4641 9.88007 2.78289 H 1 RES   0.0000
7176 H -4.16989 -11.4692 -12.639 H 1 RES   0.0000
7177 H 2.14192 -10.6345 -4.07431 H 1 RES   0.0000
7178 H 0.888477 -1.27123 1.76692 H 1 RES   0.0000
7179 H -12.2778 -1.63531 9.57124 H 1 RES   0.0000
7180 H 11.7429 -10.6182 -8.90677 H 1 RES   0.0000
7181 H 13.6625 12.2514 -1.29071 H 1 RES   0.0000
7182 H 12.4447 -6.61801 -10.18 H 1 RES   0.0000
7183 H 10.7181 3.96804 1.54449 H 1 RES   0.0000
7184 H -14.341 0.309199 2.78933 H 1 RES   0.0000
7185 H -4.04241 -3.73408 7.40684 H 1 RES   0.0000
7186 H -11.1014 10.522 8.45206 H 1 RES   0.0000
7187 H 7.53319 -12.8051 11.8522 H 1 RES   0.0000
7188 H 9.04485 -13.3004 -6.51896 H 1 RES   0.0000
7189 H -3.82134 14.1259 -13.9869 H 1 RES   0.0000
7190 H 5.54582 -7.01039 6.47606 H 1 RES   0.0000
7191 H 3.60926 -0.916969 8.07501 H 1 RES   0.0000
7192 H -0.596228 -8.97487 -8.10943 H 1 RES   0.0000
7193 H -5.71784 4.81832 -7.27757 H 1 RES   0.0000
7194 H -6.66378 -2.05406 -1.00971 H 1 RES   0.0000
7195 H 10.1967 9.56736 -3.96409 H 1 RES   0.0000
7196 H 6.97378 -4.98534 0.820965 H 1 RES   0.0000
7197 H 9.46282 -12.5029 14.752 H 1 RES   0.0000
7198 H 4.42744 -3.72399 -0.249655 H 1 RES   0.0000
7199 H -2.23316 5.9307 2.91361 H 1 RES   0.0000
7200 H -3.79802 1.81828 -6.95104 H 1 RES   0.0000
7201 H -3.16677 -6.00126 10.6607 H 1 RES   0.0000
7202 H -11.2983 2.64261 5.8263 H 1 RES   0.0000
7203 H 13.8404 13.0236 14.0554 H 1 RES   0.0000
7204 H 0.719834 12.2583 6.27344 H 1 RES   0.0000
7205 H -7.30611 5.37042 6.04224 H 1 RES   0.0000
7206 H 3.30883 13.8575 -14.2181 H 1 RES   0.0000
7207 H 3.87254 -9.27504 6.93286 H 1 RES   0.0000
7208 H 13.9176 3.25383 13.8121 H 1 RES   0.0000
7209 H 9.61874 -1.79877 -2.94972 H 1 RES   0.0000
7210 H 11.8151 1.66501 11.2794 H 1 RES   0.0000
7211 H -2.71114 -7.03513 10.2189 H 1 RES   0.0000
7212 H -5.4018 -3.00255 10.5507 H 1 RES   0.0000
7213 H -11.5802 9.67398 -13.024 H 1 RES   0.0000
7214 H 3.34461 -13.274 -7.74645 H 1 RES   0.0000
7215 H 3.56464 7.07887 -1.09858 H 1 RES   0.0000
7216 H -11.9181 -3.27323 8.97608 H 1 RES   0.0000
7217 H -5.253 -3.33725 11.8762 H 1 RES   0.0000
7218 H 1.98498 -10.0875 -10.5005 H 1 RES   0.0000
7219 H 14.1699 -5.87793 5.96138 H 1 RES   0.0000
7220 H -8.80774 -11.9681 -10.2 H 1 RES   0.0000
7221 H -1.31829 -3.36218 7.26691 H 1 RES   0.0000
7222 H -13.4928 7.01972 11.0577 H 1 RES   0.0000
7223 H -14.1107 7.51335 0.373662 H 1 RES   0.0000
7224 H -6.16913 -6.86193 -8.354 H 1 RES   0.0000
7225 H 13.6114 -5.80758 -5.7649 H 1 RES   0.0000
7226 H 10.0591 4.21719 -14.0162 H 1 RES   0.0000
7227 H 3.22892 11.3456 1.31967 H 1 RES   0.0000
7228 H 4.08504 13.6989 -13.2391 H 1 RES   0.0000
7229 H -14.3502 14.1929 -8.09456 H 1 RES   0.0000
7230 H -11.7948 5.53809 -11.1213 H 1 RES   0.0000
7231 H 14.641 -3.30968 -6.18519 H 1 RES   0.0000
7232 H -4.97874 -13.9852 13.5956 H 1 RES   0.0000
7233 H -4.57811 1.49411 -12.5976 H 1 RES   0.0000
7234 H 5.6587 4.47367 -5.60267 H 1 RES   0.0000
7235 H -10.094 -4.67516 -6.44104 H 1 RES   0.0000
7236 H 13.7737 -9.06303 11.3463 H 1 RES   0.0000
7237 H 7.56527 -9.31443 8.3784 H 1 RES   0.0000
7238 H 7.28844 -12.5057 3.59085 H 1 RES   0.0000
7239 H 5.60858 -5.51518 -3.35692 H 1 RES   0.0000
7240 H 9.92138 14.0135 1.40655 H 1 RES   0.0000
7241 H 3.21794 7.88051 3.25232 H 1 RES   0.0000
7242 H -10.207 3.81061 10.3619 H 1 RES   0.0000
7243 H 4.88175 3.31065 4.60747 H 1 RES   0.0000
7244 H -7.1645 11.7806 14.71 H 1 RES   0.0000
7245 H -1.27883 3.18092 6.04214 H 1 RES   0.0000
7246 H -2.08223 -11.2083 2.3276 H 1 RES   0.0000
7247 H -12.1593 -14.7267 4.55176 H 1 RES   0.0000
7248 H 2.15079 -12.5097 -11.044 H 1 RES   0.0000
7249 H -14.4132 -8.94573 5.86134 H 1 RES   0.0000
7250 H -6.99507 -14.3574 -12.0464 H 1 RES   0.0000
7251 H -14.8255 -1.93644 4.03 H 1 RES   0.0000
7252 H -4.60317 13.0727 -4.11596 H 1 RES   0.0000
7253 H 8.11515 -11.7952 12.7667 H 1 RES   0.0000
7254 H 14.4783 -12.2466 -2.2575 H 1 RES   0.0000
7255 H -13.3258 13.0186 10.7069 H 1 RES   0.0000
7256 H 5.28482 -13.353 -12.8596 H 1 RES   0.0000
7257 H 3.86603 9.85503 6.98571 H 1 RES   0.0000
7258 H 8.65939 2.51227 4.22986 H 1 RES   0.0000
7259 H -9.02114 12.3329 -7.58402 H 1 RES   0.0000
7260 H 5.99486 7.51903 -10.6822 H 1 RES   0.0000
7261 H 8.08191 10.1124 -0.0219902 H 1 RES   0.0000
7262 H -14.4658 -10.6692 13.0702 H 1 RES   0.0000
7263 H -0.0173843 5.84129 -5.71271 H 1 RES   0.0000
7264 H -9.19986 2.62303 -0.55273 H 1 RES   0.0000
7265 H 13.1266 11.1566 6.2548 H 1 RES   0.0000
7266 H -6.9818 2.49705 -8.86592 H 1 RES   0.0000
7267 H 4.58978 -13.4679 2.57456 H 1 RES   0.0000
7268 H -8.8066 14.2031 -11.5288 H 1 RES   0.0000
7269 H -6.35482 3.48597 -11.6945 H 1 RES   0.0000
7270 H 0.584187 -10.0915 -6.02434 H 1 RES   0.0000
7271 H 4.71605 -5.80425 9.62602 H 1 RES   0.0000
7272 H -11.5428 -0.898481 13.2927 H 1 RES   0.0000
7273 H -6.14363 7.5868 7.40842 H 1 RES   0.0000
7274 H -12.0041 13.836 1.54681 H 1 RES   0.0000
7275 H 8.33518 -2.36864 -9.07999 H 1 RES   0.0000
7276 H 2.62209 -2.86789 -3.72297 H 1 RES   0.0000
7277 H 11.1405 9.60722 12.9424 H 1 RES   0.0000
7278 H -11.8763 -4.10966 10.0331 H 1 RES   0.0000
7279 H 13.1048 10.949 -10.2339 H 1 RES   0.0000
7280 H 13.6192 -5.25603 6.66634 H 1 RES   0.0000
7281 H 12.8888 10.7122 -9.20936 H 1 RES   0.0000
7282 H -12.7217 9.71014 1.84768 H 1 RES   0.0000
7283 H 4.03043 -4.73655 -3.52741 H 1 RES   0.0000
7284 H 13.4617 14.1164 -2.89491 H 1 RES   0.0000
7285 H 0.0199057 8.33706 5.47644 H 1 RES   0.0000
7286 H -3.24018 8.19827 14.2635 H 1 RES   0.0000
7287 H -6.07137 10.6884 -8.95587 H 1 RES   0.0000
7288 H 14.1115 -11.1931 -4.79141 H 1 RES   0.0000
7289 H -4.30161 -0.667036 8.77882 H 1 RES   0.0000
7290 H 8.65804 11.7932 -11.4907 H 1 RES   0.0000
7291 H 7.91221 13.3466 -6.03694 H 1 RES   0.0000
7292 H -3.79179 11.2678 3.06539 H 1 RES   0.0000
7293 H 6.17586 6.28786 -5.18723 H 1 RES   0.0000
7294 H 11.3545 11.1726 -11.3852 H 1 RES   0.0000
7295 H -10.7448 4.25812 9.11356 H 1 RES   0.0000
7296 H -6.34838 11.0227 14.2974 H 1 RES   0.0000
7297 H 9.07021 3.52498 -12.5308 H 1 RES   0.0000
7298 H 10.8091 13.8925 -8.87607 H 1 RES   0.0000
7299 H -6.74725 -5.73034 6.85847 H 1 RES   0.0000
7300 H 13.1692 6.55811 11.6046 H 1 RES   0.0000
7301 H 9.46218 -7.21311 -4.79837 H 1 RES   0.0000
7302 H -9.71042 -13.0561 -6.779 H 1 RES   0.0000
7303 H -1.57617 11.1546 -0.696706 H 1 RES   0.0000
7304 H 6.47099 -8.52006 -3.73695 H 1 RES   0.0000
7305 H -1.61128 -14.6228 -2.76469 H 1 RES   0.0000
7306 H -2.78536 9.86947 -0.115235 H 1 RES   0.0000
7307 H 3.17672 2.14895 7.64778 H 1 RES   0.0000
7308 H 13.6652 -3.37104 -12.85 H 1 RES   0.0000
7309 H 4.18388 2.40874 4.87233 H 1 RES   0.0000
7310 H 10.8322 -5.5949 14.6779 H 1 RES   0.0000
7311 H -14.3568 -5.19802 4.92376 H 1 RES   0.0000
7312 H 7.46088 -1.41181 -2.01752 H 1 RES   0.0000
7313 H -6.6556 6.7499 -3.99441 H 1 RES   0.0000
7314 H -7.73104 -7.06068 10.1561 H 1 RES   0.0000
7315 H 4.59226 5.60833 2.15069 H 1 RES   0.0000
7316 H 8.86523 -9.11639 -4.09022 H 1 RES   0.0000
7317 H -9.5006 -4.66581 -10.5658 H 1 RES   0.0000
7318 H -0.832948 0.605553 1.11776 H 1 RES   0.0000
7319 H 5.87716 13.1096 -2.66192 H 1 RES   0.0000
7320 H 14.6546 2.11917 -6.23958 H 1 RES   0.0000
7321 H 8.24084 11.0732 -12.061 H 1 RES   0.0000
7322 H -10.1606 9.35278 2.69008 H 1 RES   0.0000
7323 H -5.4253 -12.4319 8.79398 H 1 RES   0.0000
7324 H 0.419416 -14.0884 2.54022 H 1 RES   0.0000
7325 H -0.22491 5.99293 12.3729 H 1 RES   0.0000
7326 H 5.68636 0.844268 -4.81916 H 1 RES   0.0000
7327 H -9.01008 5.85645 -6.54335 H 1 RES   0.0000
7328 H 12.6082 6.32256 -8.11593 H 1 RES   0.0000
7329 H 11.7765 11.0211 -7.79063 H 1 RES   0.0000
7330 H -1.42312 -8.46321 -7.15053 H 1 RES   0.0000
7331 H -0.630965 12.9497 4.94048 H 1 RES   0.0000
7332 H 12.8913 6.7709 10.0554 H 1 RES   0.0000
7333 H -0.455997 -7.63497 -8.24496 H 1 RES   0.0000
7334 H -12.5412 5.27138 -9.16861 H 1 RES   0.0000
7335 H -3.0741 6.89621 1.28008 H 1 RES   0.0000
7336 H 6.9234 -13.9284 -7.00578 H 1 RES   0.0000
7337 H 14.0345 -1.32664 -9.87223 H 1 RES   0.0000
7338 H 11.8537 0.253205 -14.3444 H 1 RES   0.0000
7339 H 14.7659 7.12487 9.84036 H 1 RES   0.0000
7340 H -5.77354 -8.80045 -13.8434 H 1 RES   0.0000
7341 H 3.98387 -10.4814 -7.1274 H 1 RES   0.0000
7342 H -2.36627 3.05613 -10.2187 H 1 RES   0.0000
7343 H 3.28429 4.84667 -11.8464 H 1 RES   0.0000
7344 H 8.84288 13.025 5.22264 H 1 RES   0.0000
7345 H -14.7798 -5.196 10.3684 H 1 RES   0.0000
7346 H -2.19214 11.0459 8.47442 H 1 RES   0.0000
7347 H 11.39 -1.63097 8.16819 H 1 RES   0.0000
7348 H -8.48173 8.71781 -12.19 H 1 RES   0.0000
7349 H 4.78488 10.3717 13.1013 H 1 RES   0.0000
7350 H -3.91827 -1.40423 11.8253 H 1 RES   0.0000
7351 H 11.2297 5.70734 0.148635 H 1 RES   0.0000
7352 H 10.844 -14.2921 -0.219791 H 1 RES   0.0000
7353 H -14.744 0.826092 -3.34094 H 1 RES   0.0000
7354 H -4.59885 5.72798 4.92675 H 1 RES   0.0000
7355 H -4.31083 -10.0713 5.54614 H 1 RES   0.0000
7356 H 7.90614 9.19163 14.5929 H 1 RES   0.0000
7357 H 0.598371 2.04037 -14.8101 H 1 RES   0.0000
7358 H 13.1812 -2.2683 0.619312 H 1 RES   0.0000
7359 H -10.447 -3.39116 8.01063 H 1 RES   0.0000
7360 H 12.0932 7.4867 14.2912 H 1 RES   0.0000
7361 H 7.81494 14.7688 6.42426 H 1 RES   0.0000
7362 H -3.0341 9.00397 5.99011 H 1 RES   0.0000
7363 H -0.0240079 -4.82331 -11.9669 H 1 RES   0.0000
7364 H 2.83245 10.2815 13.0096 H 1 RES   0.0000
7365 H -2.16964 11.1806 -11.4967 H 1 RES   0.0000
7366 H -6.82428 -13.7917 -4.02547 H 1 RES   0.0000
7367 H -3.21637 6.61944 10.5445 H 1 RES   0.0000
7368 H -3.33724 -12.7104 -0.915609 H 1 RES   0.0000
7369 H 10.3772 7.7961 10.683 H 1 RES   0.0000
7370 H 12.147 -8.3132 4.99836 H 1 RES   0.0000
7371 H -6.50965 -14.2399 -6.87524 H 1 RES   0.0000
7372 H -4.54456 -14.5504 -14.2458 H 1 RES   0.0000
7373 H 8.83012 3.04616 -8.21791 H 1 RES   0.0000
7374 H -5.59356 -0.447857 -0.791934 H 1 RES   0.0000
7375 H -13.3276 13.1139 -13.8275 H 1 RES   0.0000
7376 H 0.156725 -9.61323 -3.13814 H 1 RES   0.0000
7377 H 7.07806 2.04921 -12.8872 H 1 RES   0.0000
7378 H -12.3069 -0.0669662 -7.05043 H 1 RES   0.0000
7379 H -10.249 2.26773 -14.5941 H 1 RES   0.0000
7380 H 0.840151 -2.80263 -0.218334 H 1 RES   0.0000
7381 H -7.23909 12.208 -4.19057 H 1 RES   0.0000
7382 H 0.0978484 11.3768 -7.98217 H 1 RES   0.0000
7383 H 9.30801 -12.5427 -8.956 H 1 RES   0.0000
7384 H 4.77376 6.41388 -2.10714 H 1 RES   0.0000
7385 H -7.38972 -2.03387 -9.72074 H 1 RES   0.0000
7386 H -14.0525 2.26246 1.87626 H 1 RES   0.0000
7387 H -7.51048 -1.32791 -5.24105 H 1 RES   0.0000
7388 H 1.74657 10.2305 -9.03727 H 1 RES   0.0000
7389 H 11.1067 5.48485 -13.5905 H 1 RES   0.0000
7390 H 13.5503 -3.21512 -4.11484 H 1 RES   0.0000
7391 H 9.20206 10.7381 13.0158 H 1 RES   0.0000
7392 H 14.8292 1.02378 3.977 H 1 RES   0.0000
7393 H 5.77889 -2.68779 2.10487 H 1 RES   0.0000
7394 H -10.1179 12.5855 11.5553 H 1 RES   0.0000
7395 H 8.4296 6.82009 12.4716 H 1 RES   0.0000
7396 H 3.06189 11.9298 6.75894 H 1 RES   0.0000
7397 H -3.84533 -2.65855 -11.6409 H 1 RES   0.0000
7398 H -9.15534 7.02826 -6.97729 H 1 RES   0.0000
7399 H 4.41396 7.06134 -10.9474 H 1 RES   0.0000
7400 H -6.90006 12.7157 -14.4635 H 1 RES   0.0000
7401 H -12.0759 -11.5917 -8.6227 H 1 RES   0.0000
7402 H 11.6724 7.72584 -5.56098 H 1 RES   0.0000
7403 H -0.0858106 -5.59001 -1.62072 H 1 RES   0.0000
7404 H 4.22564 5.46635 3.26578 H 1 RES   0.0000
7405 H -8.30731 14.6809 10.8998 H 1 RES   0.0000
7406 H 11.9315 -6.05231 9.66963 H 1 RES   0.0000
7407 H -3.30263 -5.61579 -0.443025 H 1 RES   0.0000
7408 H -7.53715 -1.75947 -0.611407 H 1 RES   0.0000
7409 H 10.0374 7.45728 -9.44052 H 1 RES   0.0000
7410 H -0.420808 2.07435 -2.55342 H 1 RES   0.0000
7411 H 7.45254 -0.826737 -4.41152 H 1 RES   0.0000
7412 H 2.08244 11.8981 1.73572 H 1 RES   0.0000
7413 H -4.52895 10.2063 6.19162 H 1 RES   0.0000
7414 H -8.91364 5.0421 -5.35432 H 1 RES   0.0000
7415 H -0.998067 9.54611 4.9586 H 1 RES   0.0000
7416 H 5.81066 -9.53751 -0.85972 H 1 RES   0.0000
7417 H 13.774 0.474227 -5.76241 H 1 RES   0.0000
7418 H -4.23877 1.8457 -10.3516 H 1 RES   0.0000
7419 H 4.40539 -10.3965 -13.0219 H 1 RES   0.0000
7420 H 12.5553 -13.6556 -5.40317 H 1 RES   0.0000
7421 H -8.19892 -13.7147 6.13226 H 1 RES   0.0000
7422 H -12.0123 -2.17945 12.0838 H 1 RES   0.0000
7423 H 7.65432 -8.89814 -10.4447 H 1 RES   0.0000
7424 H -10.0109 6.16973 3.95573 H 1 RES   0.0000
7425 H 5.03381 8.66219 2.52591 H 1 RES   0.0000
7426 H -14.0832 -11.0881 7.06351 H 1 RES   0.0000
7427 H -2.59366 12.4456 -6.39503 H 1 RES   0.0000
7428 H -11.3453 8.28997 -7.1496 H 1 RES   0.0000
7429 H -9.77276 -13.5385 12.6568 H 1 RES   0.0000
7430 H -9.20289 -4.11909 7.82153 H 1 RES   0.0000
7431 H 8.76092 -11.9129 -10.9862 H 1 RES   0.0000
7432 H 4.51796 8.05812 -11.4747 H 1 RES   0.0000
7433 H -8.58747 -14.3856 6.85285 H 1 RES   0.0000
7434 H -0.471483 13.799 -0.658166 H 1 RES   0.0000
7435 H -1.58693 2.71159 4.94496 H 1 RES   0.0000
7436 H 14.5178 12.5438 0.576182 H 1 RES   0.0000
7437 H 11.6185 5.46839 -6.89714 H 1 RES   0.0000
7438 H -13.7754 6.36168 -14.3182 H 1 RES   0.0000
7439 H 14.3363 0.621096 -11.7231 H 1 RES   0.0000
7440 H 10.0084 14.5634 -9.0271 H 1 RES   0.0000
7441 H -9.13036 2.71546 -13.6739 H 1 RES   0.0000
7442 H -9.86956 7.16469 -1.27306 H 1 RES   0.0000
7443 H 3.13434 -4.45521 -13.8666 H 1 RES   0.0000
7444 H 6.77707 8.68249 11.3495 H 1 RES   0.0000
7445 H -3.74873 8.21139 3.05221 H 1 RES   0.0000
7446 H 4.82281 4.94517 9.15115 H 1 RES   0.0000
7447 H -2.44971 5.19156 9.1369 H 1 RES   0.0000
7448 H 4.51731 2.41564 -10.7973 H 1 RES   0.0000
7449 H -5.02518 -0.319821 12.3845 H 1 RES   0.0000
7450 H -9.57794 -7.28144 -11.1543 H 1 RES   0.0000
7451 H 7.2321 -13.9802 -0.0248306 H 1 RES   0.0000
7452 H 6.09556 11.4312 11.0645 H 1 RES   0.0000
7453 H 5.91013 2.37393 4.6385 H 1 RES   0.0000
7454 H -11.691 -5.7108 12.1475 H 1 RES   0.0000
7455 H -4.98618 5.79811 -2.37879 H 1 RES   0.0000
7456 H 0.940198 5.72004 12.4835 H 1 RES   0.0000
7457 H -12.0119 -2.20551 0.354401 H 1 RES   0.0000
7458 H 3.01684 9.55054 7.98747 H 1 RES   0.0000
7459 H 10.6294 8.88359 5.0381 H 1 RES   0.0000
7460 H -7.52071 8.15478 -12.6468 H 1 RES   0.0000
7461 H -7.04633 -11.5229 2.48437 H 1 RES   0.0000
7462 H 5.06409 -5.28031 14.5496 H 1 RES   0.0000
7463 H -1.93832 11.5361 -1.72451 H 1 RES   0.0000
7464 H 0.455285 -10.1897 10.5403 H 1 RES   0.0000
7465 H -1.58964 -6.23625 3.32606 H 1 RES   0.0000
7466 H 14.485 -6.51665 -9.19795 H 1 RES   0.0000
7467 H -11.997 -0.458794 9.6115 H 1 RES   0.0000
7468 H -9.94688 -8.69926 -2.52088 H 1 RES   0.0000
7469 H -9.20324 -0.746618 11.0033 H 1 RES   0.0000
7470 H -14.1241 -0.798714 -6.30617 H 1 RES   0.0000
7471 H 11.9687 14.3859 -12.0698 H 1 RES   0.0000
7472 H -0.572679 4.96167 13.9225 H 1 RES   0.0000
7473 H 10.089 -8.76752 -10.2822 H 1 RES   0.0000
7474 H 7.95739 -14.3841 11.7705 H 1 RES   0.0000
7475 H -9.12468 -10.1083 -2.10849 H 1 RES   0.0000
7476 H -9.70255 -7.37768 -9.38695 H 1 RES   0.0000
7477 H -7.48101 -4.5645 1.62032 H 1 RES   0.0000
7478 H -13.9443 -10.577 8.30639 H 1 RES   0.0000
7479 H -8.73349 -11.167 -13.6842 H 1 RES   0.0000
7480 H 14.7021 8.24409 3.81348 H 1 RES   0.0000
7481 H 3.87909 0.813029 -10.277 H 1 RES   0.0000
7482 H 1.96021 -2.94528 9.4544 H 1 RES   0.0000
7483 H -8.1583 -8.40962 12.8176 H 1 RES   0.0000
7484 H -0.579264 -1.8799 4.64008 H 1 RES   0.0000
7485 H 14.46 -14.8325 12.7865 H 1 RES   0.0000
7486 H 5.6294 -8.41744 -1.52963 H 1 RES   0.0000
7487 H -4.85009 -5.34897 7.62736 H 1 RES   0.0000
7488 H 5.58266 11.4504 -8.55452 H 1 RES   0.0000
7489 H -0.67706 3.86165 14.5056 H 1 RES   0.0000
7490 H -6.09474 0.266161 6.06813 H 1 RES   0.0000
7491 H -12.3997 4.1932 0.0297186 H 1 RES   0.0000
7492 H -11.4637 -3.38254 -1.18288 H 1 RES   0.0000
7493 H 4.79682 -7.5318 -4.13587 H 1 RES   0.0000
7494 H -12.3392 -3.51971 14.1144 H 1 RES   0.0000
7495 H 11.047 -7.63045 6.1916 H 1 RES   0.0000
7496 H -0.365512 5.98871 7.20333 H 1 RES   0.0000
7497 H 5.24281 1.12713 -13.0916 H 1 RES   0.0000
7498 H 4.96284 -3.75252 -14.2342 H 1 RES   0.0000
7499 H -13.9949 9.7684 -4.66883 H 1 RES   0.0000
7500 H -1.41573 12.5173 -7.10126 H 1 RES   0.0000
7501 H 11.2495 -2.70165 7.26156 H 1 RES   0.0000
7502 H -2.47859 1.53742 -3.99793 H 1 RES   0.0000
7503 H 6.6532 4.55963 -7.91302 H 1 RES   0.0000
7504 H -13.0535 -11.3267 -3.92401 H 1 RES   0.0000
7505 H 8.00863 7.34095 -11.7256 H 1 RES   0.0000
7506 H 8.02465 3.41572 -11.8734 H 1 RES   0.0000
7507 H -12.9052 5.33321 0.253385 H 1 RES   0.0000
7508 H -13.2175 7.38852 13.7643 H 1 RES   0.0000
7509 H -5.28659 -1.82171 -2.30773 H 1 RES   0.0000
7510 H -1.89959 -13.6921 4.45381 H 1 RES   0.0000
7511 H 3.51285 -2.66418 7.55479 H 1 RES   0.0000
7512 H -9.05644 -11.0141 -0.64066 H 1 RES   0.0000
7513 H -2.25715 9.18699 -11.5359 H 1 RES   0.0000
7514 H 7.94524 6.06358 4.86443 H 1 RES   0.0000
7515 H -1.67607 12.1205 -13.2228 H 1 RES   0.0000
7516 H 12.8903 -7.55984 7.77464 H 1 RES   0.0000
7517 H 10.3781 8.24625 14.3185 H 1 RES   0.0000
7518 H -11.8277 -14.5579 -12.7171 H 1 RES   0.0000
7519 H -11.8317 -5.4082 -0.148517 H 1 RES   0.0000
7520 H -5.81971 9.11921 9.38473 H 1 RES   0.0000
7521 H -11.7842 4.39858 -10.6174 H 1 RES   0.0000
7522 H -8.76603 11.8492 5.35412 H 1 RES   0.0000
7523 H 14.2995 -6.68555 8.48608 H 1 RES   0.0000
7524 H 5.9732 2.18852 -2.35377 H 1 RES   0.0000
7525 H 6.15672 12.1483 -4.57945 H 1 RES   0.0000
7526 H 11.5087 1.70473 -9.01647 H 1 RES   0.0000
7527 H -6.22974 -6.68992 -5.12051 H 1 RES   0.0000
7528 H 3.28603 -2.18123 -4.20186 H 1 RES   0.0000
7529 H -11.9895 -13.2372 -5.40148 H 1 RES   0.0000
7530 H 1.58907 -6.37842 12.6796 H 1 RES   0.0000
7531 H 0.864258 8.8257 -14.1241 H 1 RES   0.0000
7532 H 5.01478 13.7317 7.45304 H 1 RES   0.0000
7533 H 10.6911 5.66966 11.3733 H 1 RES   0.0000
7534 H -0.596667 14.3914 -9.84963 H 1 RES   0.0000
7535 H -4.29131 5.52071 0.76699 H 1 RES   0.0000
7536 H 8.36803 -11.9536 -6.8887 H 1 RES   0.0000
7537 H -11.0418 5.93813 -12.5168 H 1 RES   0.0000
7538 H -12.0465 -2.40016 5.31252 H 1 RES   0.0000
7539 H -13.557 -0.220169 0.726876 H 1 RES   0.0000
7540 H -3.81517 -4.03067 0.737579 H 1 RES   0.0000
7541 H 13.2343 1.6282 -6.75044 H 1 RES   0.0000
7542 H 4.81607 11.4301 12.4847 H 1 RES   0.0000
7543 H -6.40344 -9.66095 -14.4764 H 1 RES   0.0000
7544 H 6.87884 14.0932 -3.72771 H 1 RES   0.0000
7545 H 5.46436 8.65191 8.45395 H 1 RES   0.0000
7546 H -4.66744 11.1832 -1.85128 H 1 RES   0.0000
7547 H -13.9692 -4.91214 -6.3235 H 1 RES   0.0000
7548 H -0.0644924 -9.70318 -4.58026 H 1 RES   0.0000
7549 H -0.111903 7.43936 12.632 H 1 RES   0.0000
7550 H 10.2427 -7.33275 -0.208083 H 1 RES   0.0000
7551 H 4.40178 10.5654 0.978801 H 1 RES   0.0000
7552 H -12.9578 -10.99 -10.243 H 1 RES   0.0000
7553 H 12.7322 8.60214 -11.7746 H 1 RES   0.0000
7554 H -9.95486 -11.2963 10.5725 H 1 RES   0.0000
7555 H 12.5159 -14.8134 -13.0493 H 1 RES   0.0000
7556 H -8.11366 11.7219 -13.4881 H 1 RES   0.0000
7557 H 8.70538 -10.8177 -2.61244 H 1 RES   0.0000
7558 H -8.78218 -14.1662 3.37547 H 1 RES   0.0000
7559 H 14.3865 1.98534 -2.79378 H 1 RES   0.0000
7560 H 14.2836 -14.4548 -1.61338 H 1 RES   0.0000
7561 H -5.91635 7.81064 3.5557 H 1 RES   0.0000
7562 H -1.43426 3.30316 2.62626 H 1 RES   0.0000
7563 H -4.25808 12.2607 -4.53831 H 1 RES   0.0000
7564 H 13.5607 -12.5694 -1.68158 H 1 RES   0.0000
7565 H -8.0914 6.04353 -11.267 H 1 RES   0.0000
7566 H -9.51177 -12.1045 -13.2931 H 1 RES   0.0000
7567 H 2.80094 1.11739 6.1568 H 1 RES   0.0000
7568 H 0.693342 -7.93061 8.95029 H 1 RES   0.0000
7569 H 1.91005 -1.6317 -13.9318 H 1 RES   0.0000
7570 H -10.1095 0.528322 12.9518 H 1 RES   0.0000
7571 H -13.3836 9.56392 -13.7099 H 1 RES   0.0000
7572 H -11.6901 13.9965 0.541891 H 1 RES   0.0000
7573 H 8.55573 -1.18968 12.3826 H 1 RES   0.0000
7574 H 10.3307 -10.9972 -6.66215 H 1 RES   0.0000
7575 H -10.5393 -11.3281 13.4979 H 1 RES   0.0000
7576 H -9.27016 7.03474 4.88094 H 1 RES   0.0000
7577 H -2.90562 3.44589 0.707679 H 1 RES   0.0000
7578 H 9.89804 -4.68756 1.00579 H 1 RES   0.0000
7579 H -4.30473 -0.0660623 10.8577 H 1 RES   0.0000
7580 H -8.24658 1.50936 2.54984 H 1 RES   0.0000
7581 H 12.2316 -4.06704 -2.11662 H 1 RES   0.0000
7582 H -7.46428 9.86946 -4.86399 H 1 RES   0.0000
7583 H -2.59843 10.0938 10.6935 H 1 RES   0.0000
7584 H 8.64431 -6.57683 2.22367 H 1 RES   0.0000
7585 H 8.81775 -4.72596 13.4973 H 1 RES   0.0000
7586 H -8.56299 13.8379 -3.86641 H 1 RES   0.0000
7587 H -2.76497 8.38472 10.6032 H 1 RES   0.0000
7588 H -14.3915 -7.76135 1.44029 H 1 RES   0.0000
7589 H -6.86009 1.61368 7.06234 H 1 RES   0.0000
7590 H -11.3719 4.43167 2.09847 H 1 RES   0.0000
7591 H 13.4591 3.63643 3.11313 H 1 RES   0.0000
7592 H 10.127 1.92353 2.1481 H 1 RES   0.0000
7593 H 3.7147 -8.83503 -10.7568 H 1 RES   0.0000
7594 H -11.9448 9.92814 -12.0273 H 1 RES   0.0000
7595 H -7.01622 -10.8329 1.18321 H 1 RES   0.0000
7596 H -3.92125 11.3994 12.5418 H 1 RES   0.0000
7597 H -1.0073 14.5294 -4.85255 H 1 RES   0.0000
7598 H -12.889 -6.71044 -2.74465 H 1 RES   0.0000
7599 H 2.23671 13.7056 -1.7829 H 1 RES   0.0000
7600 H -0.528248 -8.35169 -6.43045 H 1 RES   0.0000
7601 H -2.69495 -1.57691 6.84968 H 1 RES   0.0000
7602 H -9.16582 2.26797 4.54148 H 1 RES   0.0000
7603 H -12.6184 7.43014 9.78891 H 1 RES   0.0000
7604 H 12.6643 6.7557 5.33932 H 1 RES   0.0000
7605 H 10.7923 2.91916 1.10242 H 1 RES   0.0000
7606 H 4.39625 -1.34923 -7.22599 H 1 RES   0.0000
7607 H -6.37395 2.34946 8.02553 H 1 RES   0.0000
7608 H -9.32522 8.52052 0.744413 H 1 RES   0.0000
7609 H -1.57393 14.4247 4.47526 H 1 RES   0.0000
7610 H -3.45388 4.02833 -9.13116 H 1 RES   0.0000
7611 H 2.94249 10.7577 -0.649566 H 1 RES   0.0000
7612 H -2.97965 -12.8281 9.17642 H 1 RES   0.0000
7613 H 1.18644 8.35788 11.0785 H 1 RES   0.0000
7614 H -4.54215 1.60506 -14.0948 H 1 RES   0.0000
7615 H -13.0576 2.28544 6.42896 H 1 RES   0.0000
7616 H -9.26407 -9.78671 7.20439 H 1 RES   0.0000
7617 H 8.79739 9.95707 -7.70349 H 1 RES   0.0000
7618 H 3.54394 -12.5811 -6.25966 H 1 RES   0.0000
7619 H -8.08437 -9.32422 3.85181 H 1 RES   0.0000
7620 H -13.3978 1.64757 2.49585 H 1 RES   0.0000
7621 H 1.16699 -1.74092 4.68565 H 1 RES   0.0000
7622 H -12.0977 2.9817 -0.47405 H 1 RES   0.0000
7623 H -0.704515 10.248 -5.25375 H 1 RES   0.0000
7624 H 14.4473 13.359 9.24691 H 1 RES   0.0000
7625 H -12.5621 0.259878 -3.92985 H 1 RES   0.0000
7626 H -0.621793 12.309 14.5849 H 1 RES   0.0000
7627 H 10.3818 2.15187 -3.27803 H 1 RES   0.0000
7628 H 13.9539 -7.9335 -8.02097 H 1 RES   0.0000
7629 H -9.72635 -1.86586 -1.80395 H 1 RES   0.0000
7630 H 11.9393 12.3009 -14.8355 H 1 RES   0.0000
7631 H -0.858103 -12.1348 -5.32931 H 1 RES   0.0000
7632 H -9.5509 3.43742 -9.76892 H 1 RES   0.0000
7633 H 3.0867 2.72113 10.2828 H 1 RES   0.0000
7634 H -10.3757 -2.64516 -5.16979 H 1 RES   0.0000
7635 H 11.4048 4.8168 -9.81078 H 1 RES   0.0000
7636 H 13.27 4.44426 -12.8586 H 1 RES   0.0000
7637 H 11.8634 -0.557475 7.76876 H 1 RES   0.0000
7638 H 1.55896 5.56915 9.96721 H 1 RES   0.0000
7639 H 14.5399 13.5619 -8.02916 H 1 RES   0.0000
7640 H -8.44061 9.70095 8.25057 H 1 RES   0.0000
7641 H -7.5052 12.3394 -2.27926 H 1 RES   0.0000
7642 H -11.1127 7.66699 -2.16548 H 1 RES   0.0000
7643 H 7.97068 5.04776 6.36599 H 1 RES   0.0000
7644 H 6.67715 -5.75848 -14.5294 H 1 RES   0.0000
7645 H -8.7777 5.7246 -11.8796 H 1 RES   0.0000
7646 H 10.4526 -3.89618 -2.69592 H 1 RES   0.0000
7647 H -12.6633 -10.7499 0.152834 H 1 RES   0.0000
7648 H 0.814213 -10.848 9.62136 H 1 RES   0.0000
7649 H -6.68043 -7.21709 4.35055 H 1 RES   0.0000
7650 H 12.6802 1.19192 -8.34953 H 1 RES   0.0000
7651 H -1.07168 -8.7654 10.472 H 1 RES   0.0000
7652 H -1.0388 -6.79924 5.64854 H 1 RES   0.0000
7653 H 6.19993 9.20119 10.6096 H 1 RES   0.0000
7654 H -11.3488 -4.75413 -4.68221 H 1 RES   0.0000
7655 H -2.75868 -7.42637 -5.11071 H 1 RES   0.0000
7656 H 8.11749 -4.81148 12.2536 H 1 RES   0.0000
7657 H -11.6543 9.62842 8.88223 H 1 RES   0.0000
7658 H 4.58099 5.79407 10.4302 H 1 RES   0.0000
7659 H 9.58424 -8.72433 9.61618 H 1 RES   0.0000
7660 H -11.2038 -10.3903 -10.1882 H 1 RES   0.0000
7661 H -10.2806 11.355 -11.1747 H 1 RES   0.0000
7662 H -1.45334 -13.9252 13.6578 H 1 RES   0.0000
7663 H -10.9718 9.6088 -12.186 H 1 RES   0.0000
7664 H -8.42865 -7.32074 13.3845 H 1 RES   0.0000
7665 H 2.19431 -5.22387 -0.627389 H 1 RES   0.0000
7666 H 7.17143 -2.83509 -13.4276 H 1 RES   0.0000
7667 H -6.32953 -13.6713 -14.7004 H 1 RES   0.0000
7668 H 8.3281 9.65496 13.6689 H 1 RES   0.0000
7669 H 2.14906 12.6786 -10.973 H 1 RES   0.0000
7670 H -2.82671 -11.239 -12.3117 H 1 RES   0.0000
7671 H -8.34713 -7.89745 9.39026 H 1 RES   0.0000
7672 H -0.594566 13.5852 -5.1731 H 1 RES   0.0000
7673 H 5.40408 6.13754 -7.91635 H 1 RES   0.0000
7674 H -14.2087 10.2425 -8.12616 H 1 RES   0.0000
7675 H 5.86702 -13.3887 3.29332 H 1 RES   0.0000
7676 H -6.864 -6.50858 10.5223 H 1 RES   0.0000
7677 H 1.42632 -7.78511 12.4833 H 1 RES   0.0000
7678 H 8.8216 -6.2364 -7.07787 H 1 RES   0.0000
7679 H 4.40681 14.3093 14.3235 H 1 RES   0.0000
7680 H -6.8134 -14.5499 5.07437 H 1 RES   0.0000
7681 H -4.43736 8.82487 0.371823 H 1 RES   0.0000
7682 H -9.99629 -13.2831 -4.96531 H 1 RES   0.0000
7683 H 12.4168 -13.7516 3.96452 H 1 RES   0.0000
7684 H 2.36877 3.09232 -13.3717 H 1 RES   0.0000
7685 H 4.43833 -3.82429 6.30722 H 1 RES   0.0000
7686 H -4.78506 8.35985 -2.99097 H 1 RES   0.0000
7687 H 1.9172 7.38753 4.09182 H 1 RES   0.0000
7688 H -8.20345 -12.6196 -10.9999 H 1 RES   0.0000
7689 H 6.56611 -11.6211 -6.76767 H 1 RES   0.0000
7690 H 3.30143 11.5533 -7.75788 H 1 RES   0.0000
7691 H 8.2092 -0.206668 -0.717417 H 1 RES   0.0000
7692 H -3.87753 -10.2705 14.1034 H 1 RES   0.0000
7693 H 7.30684 8.454 6.18028 H 1 RES   0.0000
7694 H 9.85008 -2.42025 -4.74298 H 1 RES   0.0000
7695 H 13.6379 -10.4253 -5.87579 H 1 RES   0.0000
7696 H -5.42804 5.08957 10.5371 H 1 RES   0.0000
7697 H -5.81738 -7.97862 -9.21378 H 1 RES   0.0000
7698 H -11.6807 5.94752 2.95014 H 1 RES   0.0000
7699 H 13.8579 11.3597 12.837 H 1 RES   0.0000
7700 H 11.6706 -12.8465 -8.6998 H 1 RES   0.0000
7701 H -13.8007 0.596896 -5.19854 H 1 RES   0.0000
7702 H 1.65387 4.29742 10.7186 H 1 RES   0.0000
7703 H 1.0518 -10.8632 -4.28958 H 1 RES   0.0000
7704 H 9.69673 9.13078 0.311378 H 1 RES   0.0000
7705 H 5.01558 3.22491 7.16043 H 1 RES   0.0000
7706 H -10.3276 -12.1332 -1.06333 H 1 RES   0.0000
7707 H -5.23126 3.51042 -6.42885 H 1 RES   0.0000
7708 H 1.33835 -1.23994 9.62322 H 1 RES   0.0000
7709 H 1.42147 -14.4384 -7.42875 H 1 RES   0.0000
7710 H -10.8407 -3.30948 13.1096 H 1 RES   0.0000
7711 H -7.38294 -10.1971 11.8008 H 1 RES   0.0000
7712 H -4.74657 7.75054 -11.2548 H 1 RES   0.0000
7713 H -5.8301 -8.63615 13.7535 H 1 RES   0.0000
7714 H 13.7383 5.0237 -6.77981 H 1 RES   0.0000
7715 H -10.7889 3.86228 -0.716584 H 1 RES   0.0000
7716 H -11.9831 -4.17496 5.28806 H 1 RES   0.0000
7717 H 6.43526 13.6704 12.9689 H 1 RES   0.0000
7718 H -14.5365 -6.19306 10.2458 H 1 RES   0.0000
7719 H -6.65082 4.97472 -5.37093 H 1 RES   0.0000
7720 H 8.27142 -9.23897 -2.32556 H 1 RES   0.0000
7721 H 0.588719 10.633 3.98745 H 1 RES   0.0000
7722 H 1.41077 0.79834 -4.058 H 1 RES   0.0000
7723 H 3.75949 4.67034 2.45193 H 1 RES   0.0000
7724 H -8.8664 -5.54208 10.4913 H 1 RES   0.0000
7725 H -8.96306 3.93157 5.50798 H 1 RES   0.0000
7726 H -12.3955 1.04782 3.41899 H 1 RES   0.0000
7727 H 3.30896 -4.73926 6.05741 H 1 RES   0.0000
7728 H -12.5155 -11.7438 -13.5666 H 1 RES   0.0000
7729 H -8.56392 5.64521 -2.6577 H 1 RES   0.0000
7730 H 3.90133 10.5188 9.70817 H 1 RES   0.0000
7731 H -8.30878 -7.19844 -13.0454 H 1 RES   0.0000
7732 H -4.23204 7.96235 -9.96618 H 1 RES   0.0000
7733 H -11.0295 -4.77302 -8.409 H 1 RES   0.0000
7734 H -1.06083 -14.1072 -13.3551 H 1 RES   0.0000
7735 H 2.81428 -7.50437 9.0681 H 1 RES   0.0000
7736 H 12.9771 -11.0285 -9.1506 H 1 RES   0.0000
7737 H -4.47185 -13.9604 9.03823 H 1 RES   0.0000
7738 H 13.7031 -14.7476 1.09691 H 1 RES   0.0000
7739 H -11.8345 -1.71293 3.72351 H 1 RES   0.0000
7740 H 10.6763 -13.1764 -13.0815 H 1 RES   0.0000
7741 H 3.08744 4.56979 13.531 H 1 RES   0.0000
7742 H 3.52332 1.74777 -14.4648 H 1 RES   0.0000
7743 H -9.17097 4.16896 -1.35744 H 1 RES   0.0000
7744 H 12.6551 -8.53305 14.6169 H 1 RES   0.0000
7745 H -4.59799 -6.87719 -3.52443 H 1 RES   0.0000
7746 H -12.2814 -4.76301 -13.7201 H 1 RES   0.0000
7747 H -8.80354 13.1806 -9.94403 H 1 RES   0.0000
7748 H -4.20835 -0.537858 1.51593 H 1 RES   0.0000
7749 H 4.94069 9.91531 -9.96526 H 1 RES   0.0000
7750 H -0.238355 -14.7743 10.1204 H 1 RES   0.0000
7751 H -13.013 -9.92477 -10.0021 H 1 RES   0.0000
7752 H 10.617 -4.21403 -7.66152 H 1 RES   0.0000
7753 H -12.3079 -8.661 -6.29004 H 1 RES   0.0000
7754 H 2.42892 9.81676 0.0816405 H 1 RES   0.0000
7755 H 14.6331 3.01535 -0.38031 H 1 RES   0.0000
7756 H -8.37419 1.10767 9.95853 H 1 RES   0.0000
7757 H 13.3861 -3.50694 -2.13549 H 1 RES   0.0000
7758 H -4.98608 14.4366 -9.41766 H 1 RES   0.0000
7759 H -12.5615 -6.23007 -5.75527 H 1 RES   0.0000
7760 H 6.59521 -1.93191 14.2404 H 1 RES   0.0000
7761 H 3.92628 -11.5633 -14.8414 H 1 RES   0.0000
7762 H 11.0809 -10.9158 -2.30528 H 1 RES   0.0000
7763 H -13.9952 10.113 -9.13108 H 1 RES   0.0000
7764 H -1.65748 13.9914 -6.50377 H 1 RES   0.0000
7765 H -0.49054 4.37023 10.6101 H 1 RES   0.0000
7766 H 13.5975 -2.3676 -2.32182 H 1 RES   0.0000
7767 H -5.81988 -12.1247 -12.9389 H 1 RES   0.0000
7768 H 7.97382 -1.82689 6.42871 H 1 RES   0.0000
7769 H 14.4892 13.7977 -2.00128 H 1 RES   0.0000
7770 H 1.19514 -14.0882 0.579716 H 1 RES   0.0000
7771 H 0.263673 8.82433 10.3273 H 1 RES   0.0000
7772 H 3.19418 -11.4393 -2.54811 H 1 RES   0.0000
7773 H -11.4045 7.33549 -8.91166 H 1 RES   0.0000
7774 H 1.85248 -6.85179 -7.00307 H 1 RES   0.0000
7775 H -14.5935 0.126879 -8.96274 H 1 RES   0.0000
7776 H -7.64641 -6.23529 -11.4335 H 1 RES   0.0000
7777 H 7.30106 4.49398 -12.0623 H 1 RES   0.0000
7778 H 1.04955 -5.83733 3.79354 H 1 RES   0.0000
7779 H 4.32798 -13.604 14.3809 H 1 RES   0.0000
7780 H -10.9096 -4.00202 -7.66907 H 1 RES   0.0000
7781 H 6.18195 10.702 -5.79752 H 1 RES   0.0000
7782 H 10.6199 -12.5519 -5.29536 H 1 RES   0.0000
7783 H 14.2627 -4.12667 -10.2546 H 1 RES   0.0000
7784 H 1.43167 13.7476 -6.72385 H 1 RES   0.0000
7785 H -5.15421 4.76974 -9.38359 H 1 RES   0.0000
7786 H -7.71351 3.57305 3.20174 H 1 RES   0.0000
7787 H -0.214629 -3.34169 0.373013 H 1 RES   0.0000
7788 H -6.8234 -14.5984 -2.97691 H 1 RES   0.0000
7789 H 7.33445 -12.3799 9.69533 H 1 RES   0.0000
7790 H 10.6088 -12.9018 9.32834 H 1 RES   0.0000
7791 H 7.4521 9.01494 9.73425 H 1 RES   0.0000
7792 H 10.2173 9.57224 -12.2753 H 1 RES   0.0000
7793 H 11.0898 6.95667 -10.3656 H 1 RES   0.0000
7794 H -4.05581 -8.93747 4.8511 H 1 RES   0.0000
7795 H -8.99973 -0.323951 9.41066 H 1 RES   0.0000
7796 H -14.6389 -5.81784 -12.3928 H 1 RES   0.0000
7797 H 1.42138 -14.6341 -13.1314 H 1 RES   0.0000
7798 H -12.3796 10.6994 -11.4268 H 1 RES   0.0000
7799 H -0.0380322 11.747 -9.15374 H 1 RES   0.0000
7800 H -14.7662 0.493015 -0.976827 H 1 RES   0.0000
7801 H -12.779 -3.06049 -13.8243 H 1 RES   0.0000
7802 H 4.2297 -2.01497 -10.2476 H 1 RES   0.0000
7803 H -5.56097 0.474233 13.9113 H 1 RES   0.0000
7804 H -11.3842 5.30716 5.49911 H 1 RES   0.0000
7805 H -7.21334 -2.84952 -9.09978 H 1 RES   0.0000
7806 H 5.53258 3.53386 7.90392 H 1 RES   0.0000
7807 H 8.98034 -5.26016 7.46535 H 1 RES   0.0000
7808 H 13.155 -3.59602 10.7818 H 1 RES   0.0000
7809 H 5.62802 0.378474 3.15756 H 1 RES   0.0000
7810 H -11.6368 4.96719 -3.26618 H 1 RES   0.0000
7811 H 3.97069 11.5361 14.4075 H 1 RES   0.0000
7812 H 11.5902 8.09574 -6.69104 H 1 RES   0.0000
7813 H 11.5439 6.79488 -2.99341 H 1 RES   0.0000
7814 H -10.8282 -6.61212 -12.4469 H 1 RES   0.0000
7815 H -12.5784 4.5032 1.10436 H 1 RES   0.0000
7816 H -8.8582 12.1933 -9.66798 H 1 RES   0.0000
7817 H 4.36681 1.74299 14.564 H 1 RES   0.0000
7818 H -3.51975 5.96993 14.3207 H 1 RES   0.0000
7819 H 8.47452 8.56735 0.104838 H 1 RES   0.0000
7820 H 10.1515 11.2308 -7.15195 H 1 RES   0.0000
7821 H -1.50727 -0.0102784 0.271454 H 1 RES   0.0000
7822 H -8.57343 11.2995 -7.44393 H 1 RES   0.0000
7823 H 9.46846 6.08862 -8.01461 H 1 RES   0.0000
7824 H 8.05967 -4.21917 0.544735 H 1 RES   0.0000
7825 H 9.99424 -2.58285 -10.2623 H 1 RES   0.0000
7826 H 10.6356 -5.9234 -1.80796 H 1 RES   0.0000
7827 H 9.53066 -1.32513 -6.2549 H 1 RES   0.0000
7828 H -5.41661 6.99924 12.1499 H 1 RES   0.0000
7829 H -10.5049 -14.1594 8.53003 H 1 RES   0.0000
7830 H -10.7933 10.7342 7.16048 H 1 RES   0.0000
7831 H -6.18271 -9.87974 -11.0868 H 1 RES   0.0000
7832 H -14.7984 4.63761 -8.28996 H 1 RES   0.0000
7833 H -2.33091 1.26086 -10.7076 H 1 RES   0.0000
7834 H 14.3911 5.12238 6.28607 H 1 RES   0.0000
7835 H 3.60023 1.26991 0.0910705 H 1 RES   0.0000
7836 H 7.98484 -10.8218 3.59509 H 1 RES   0.0000
7837 H -0.235342 9.98845 11.1284 H 1 RES   0.0000
7838 H 1.70147 -11.0945 2.52505 H 1 RES   0.0000
7839 H -9.27697 1.28822 9.11332 H 1 RES   0.0000
7840 H -13.57 6.60519 -6.4961 H 1 RES   0.0000
7841 H -7.42459 -11.6803 -0.47531 H 1 RES   0.0000
7842 H 4.37611 -3.38244 1.34891 H 1 RES   0.0000
7843 H -1.79651 9.30625 10.3785 H 1 RES   0.0000
7844 H 1.74337 5.93156 -2.28908 H 1 RES   0.0000
7845 H 6.39993 0.911307 -3.6261 H 1 RES   0.0000
7846 H 3.04437 9.5614 0.96631 H 1 RES   0.0000
7847 H -12.3201 3.14355 5.76454 H 1 RES   0.0000
7848 H 4.47323 -14.3364 8.54511 H 1 RES   0.0000
7849 H -6.48927 -4.92613 10.9683 H 1 RES   0.0000
7850 H -3.92603 0.43272 8.72714 H 1 RES   0.0000
7851 H -13.2602 -5.06138 -12.7294 H 1 RES   0.0000
7852 H 12.6164 14.279 -7.04166 H 1 RES   0.0000
7853 H -7.83168 -9.36998 -11.4024 H 1 RES   0.0000
7854 H 1.1491 -8.81097 8.99984 H 1 RES   0.0000
7855 H 5.47154 -7.11921 -5.20893 H 1 RES   0.0000
7856 H -4.57919 -0.156454 -14.3749 H 1 RES   0.0000
7857 H -7.89286 5.31759 1.66634 H 1 RES   0.0000
7858 H 13.1099 -12.7574 -3.60345 H 1 RES   0.0000
7859 H 10.1109 7.61898 -0.896036 H 1 RES   0.0000
7860 H -5.41009 -4.81592 -9.44407 H 1 RES   0.0000
7861 H -13.0692 12.8554 3.96823 H 1 RES   0.0000
7862 H 13.2422 3.5929 -9.4503 H 1 RES   0.0000
7863 H 9.85772 -8.1616 -6.17335 H 1 RES   0.0000
7864 H -8.26807 5.10351 -10.955 H 1 RES   0.0000
7865 H -2.60759 -2.77178 13.0095 H 1 RES   0.0000
7866 H -0.58006 -12.0163 -3.95407 H 1 RES   0.0000
7867 H 4.22135 -1.33138 1.34435 H 1 RES   0.0000
7868 H 4.42531 11.178 3.24975 H 1 RES   0.0000
7869 H 6.95745 2.34927 -1.66967 H 1 RES   0.0000
7870 H 9.24121 -9.96526 -11.5923 H 1 RES   0.0000
7871 H 3.29649 13.271 8.00081 H 1 RES   0.0000
7872 H -1.79364 -9.63525 -2.61928 H 1 RES   0.0000
7873 H 2.58398 -12.5436 9.14696 H 1 RES   0.0000
7874 H -2.41398 1.74175 11.3803 H 1 RES   0.0000
7875 H -7.92893 -13.8186 -0.636425 H 1 RES   0.0000
7876 H -5.55613 0.108709 9.38071 H 1 RES   0.0000
7877 H -11.59 8.01217 -12.5787 H 1 RES   0.0000
7878 H -12.4605 -13.4379 -2.45612 H 1 RES   0.0000
7879 H -6.4029 -1.75358 -8.79543 H 1 RES   0.0000
7880 H 9.13861 -3.05224 -1.26363 H 1 RES   0.0000
7881 H 11.5078 -0.932062 14.1125 H 1 RES   0.0000
7882 H -3.99495 -14.063 -12.3799 H 1 RES   0.0000
7883 H 13.7542 -4.6003 13.4407 H 1 RES   0.0000
7884 H -5.29246 8.73295 1.07707 H 1 RES   0.0000
7885 H -3.70069 2.99324 1.31518 H 1 RES   0.0000
7886 H 3.77935 2.36098 13.2241 H 1 RES   0.0000
7887 H -10.8427 5.22353 -1.89392 H 1 RES   0.0000
7888 H 4.64496 11.0165 7.58269 H 1 RES   0.0000
7889 H 7.32018 5.50079 13.5599 H 1 RES   0.0000
7890 H 2.14917 -10.8538 -9.68841 H 1 RES   0.0000
7891 H -14.7424 0.69171 -13.6823 H 1 RES   0.0000
7892 H -12.0865 1.44089 12.4167 H 1 RES   0.0000
7893 H -2.08979 -9.21011 11.0799 H 1 RES   0.0000
7894 H -10.9211 -2.25803 11.1017 H 1 RES   0.0000
7895 H -9.10779 -7.73985 10.2356 H 1 RES   0.0000
7896 H 14.3077 -8.4113 8.93863 H 1 RES   0.0000
7897 H -11.5977 13.0863 9.87015 H 1 RES   0.0000
7898 H 4.6968 5.78583 8.64957 H 1 RES   0.0000
7899 H -12.7313 8.14318 -5.23801 H 1 RES   0.0000
7900 H -12.3921 1.7825 7.28638 H 1 RES   0.0000
7901 H 12.5562 1.25979 -14.7682 H 1 RES   0.0000
7902 H 6.72582 -7.48048 -3.25825 H 1 RES   0.0000
7903 H -3.70923 3.06942 12.1503 H 1 RES   0.0000
7904 H -9.3292 -11.3218 -1.67579 H 1 RES   0.0000
7905 H -10.7647 8.32243 5.90618 H 1 RES   0.0000
7906 H 6.95838 12.3906 11.4488 H 1 RES   0.0000
7907 H 5.31729 -13.6608 4.72511 H 1 RES   0.0000
7908 H 12.9473 11.3791 11.7848 H 1 RES   0.0000
7909 H 5.84461 -11.1558 -6.03649 H 1 RES   0.0000
7910 H 10.8316 5.70729 -9.34593 H 1 RES   0.0000
7911 H 10.1989 -13.4617 -4.63207 H 1 RES   0.0000
7912 H 11.8163 -9.26071 12.078 H 1 RES   0.0000
7913 H -1.10285 -7.50363 -3.62471 H 1 RES   0.0000
7914 H 6.38277 13.7444 0.657439 H 1 RES   0.0000
7915 H -2.89448 7.50526 11.8917 H 1 RES   0.0000
7916 H 7.29364 9.95229 7.04588 H 1 RES   0.0000
7917 H -12.5593 -2.57124 -12.6058 H 1 RES   0.0000
7918 H -0.227311 -9.68886 5.66997 H 1 RES   0.0000
7919 H 12.4594 -14.3954 0.672067 H 1 RES   0.0000
7920 H 3.67052 12.7482 -2.97472 H 1 RES   0.0000
7921 H 6.74549 4.08735 2.38712 H 1 RES   0.0000
7922 H 7.29037 2.62883 6.91801 H 1 RES   0.0000
7923 H 13.5512 8.66347 -12.8625 H 1 RES   0.0000
7924 H -6.33311 -6.6586 1.28234 H 1 RES   0.0000
7925 H 6.63909 -11.317 8.94326 H 1 RES   0.0000
7926 H 4.9657 1.63017 5.29699 H 1 RES   0.0000
7927 H 12.4848 0.43044 -3.40971 H 1 RES   0.0000
7928 H 1.33673 -5.22218 -5.0394 H 1 RES   0.0000
7929 H -1.21274 -0.956358 8.84199 H 1 RES   0.0000
7930 H -14.4218 6.20357 9.99907 H 1 RES   0.0000
7931 H 7.07376 1.99803 1.71308 H 1 RES   0.0000
7932 H 10.2736 4.05572 -1.45341 H 1 RES   0.0000
7933 H -0.141852 0.395082 -9.13724 H 1 RES   0.0000
7934 H 1.13918 12.5382 8.51131 H 1 RES   0.0000
7935 H 11.3157 -12.1007 10.1408 H 1 RES   0.0000
7936 H 12.7119 7.66886 -0.374592 H 1 RES   0.0000
7937 H -3.38719 -11.2371 -7.06371 H 1 RES   0.0000
7938 H 11.6781 -12.8488 5.65281 H 1 RES   0.0000
7939 H -6.76652 -0.943355 1.75542 H 1 RES   0.0000
7940 H -4.89764 -9.28441 10.4527 H 1 RES   0.0000
7941 H 2.7073 -12.3107 -6.85203 H 1 RES   0.0000
7942 H -5.22861 6.99148 3.21261 H 1 RES   0.0000
7943 H -1.71366 -8.644 -1.87069 H 1 RES   0.0000
7944 H -6.31946 13.0676 2.14577 H 1 RES   0.0000
7945 H -0.491688 -7.61152 5.57957 H 1 RES   0.0000
7946 H -3.77726 12.269 -10.477 H 1 RES   0.0000
7947 H -11.5042 3.23011 8.6305 H 1 RES   0.0000
7948 H 9.23521 7.57106 14.2573 H 1 RES   0.0000
7949 H 0.900586 -11.8771 12.3848 H 1 RES   0.0000
7950 H -10.2369 -9.21397 -1.57081 H 1 RES   0.0000
7951 H -5.56466 -14.6037 -7.51484 H 1 RES   0.0000
7952 H -4.33256 -7.50024 -6.90552 H 1 RES   0.0000
7953 H -13.3739 6.04257 -0.72379 H 1 RES   0.0000
7954 H 1.38951 -0.376317 8.3038 H 1 RES   0.0000
7955 H 3.1139 12.289 -3.76747 H 1 RES   0.0000
7956 H 0.90864 12.8561 -7.16822 H 1 RES   0.0000
7957 H -2.58113 13.5866 -7.09796 H 1 RES   0.0000
7958 H -2.29216 12.5976 -8.39235 H 1 RES   0.0000
7959 H 0.307725 -5.425 12.5306 H 1 RES   0.0000
7960 H 1.90061 -2.35364 -6.56122 H 1 RES   0.0000
7961 H -5.51885 -10.1623 5.50207 H 1 RES   0.0000
7962 H -0.596368 11.7486 4.9455 H 1 RES   0.0000
7963 H -0.923788 -0.0622933 13.9903 H 1 RES   0.0000
7964 H 10.6048 4.02744 8.84243 H 1 RES   0.0000
7965 H 4.08107 3.1551 6.27614 H 1 RES   0.0000
7966 H 12.3034 -3.71467 -4.69603 H 1 RES   0.0000
7967 H 0.108877 -2.50982 -4.11519 H 1 RES   0.0000
7968 H 8.39304 9.53837 -10.0014 H 1 RES   0.0000
7969 H -5.86203 1.53872 14.4576 H 1 RES   0.0000
7970 H -6.30813 12.4719 -6.04339 H 1 RES   0.0000
7971 H 5.14143 -6.29331 10.7906 H 1 RES   0.0000
7972 H 2.61796 6.93591 0.0818353 H 1 RES   0.0000
7973 H -13.8381 -3.96725 -9.28612 H 1 RES   0.0000
7974 H -11.3339 1.3172 6.01702 H 1 RES   0.0000
7975 H 6.64045 -0.695842 -11.839 H 1 RES   0.0000
7976 H 11.4409 1.55305 -6.78256 H 1 RES   0.0000
7977 H 13.9646 7.50127 9.08145 H 1 RES   0.0000
7978 H 1.94449 13.8709 9.14626 H 1 RES   0.0000
7979 H -8.92114 4.49111 -0.411895 H 1 RES   0.0000
7980 H -2.32729 -3.86807 -14.843 H 1 RES   0.0000
7981 H 14.7305 -3.14861 -12.4499 H 1 RES   0.0000
7982 H -6.258 -10.2174 2.05295 H 1 RES   0.0000
7983 H 7.57417 11.1201 -9.29287 H 1 RES   0.0000
7984 H -6.69459 -13.6974 -0.671456 H 1 RES   0.0000
7985 H 12.8708 4.45639 -5.1657 H 1 RES   0.0000
7986 H -13.6935 1.24112 7.58496 H 1 RES   0.0000
7987 H -6.90956 11.7305 -12.9426 H 1 RES   0.0000
7988 H 11.2505 14.3549 11.2218 H 1 RES   0.0000
7989 H 10.2461 1.05691 -10.8433 H 1 RES   0.0000
7990 H -5.37235 -6.14285 3.21589 H 1 RES   0.0000
7991 H -2.38208 -0.611935 11.0925 H 1 RES   0.0000
7992 H -12.2387 -12.2321 14.0271 H 1 RES   0.0000
7993 H 13.8897 -2.38143 11.1494 H 1 RES   0.0000
7994 H -7.29944 13.4359 -3.89217 H 1 RES   0.0000
7995 H -9.36547 13.522 11.6112 H 1 RES   0.0000
7996 H -5.0769 0.300442 -3.72003 H 1 RES   0.0000
7997 H -5.01667 -8.08135 -1.92718 H 1 RES   0.0000
7998 H 3.85007 -1.6884 -5.44717 H 1 RES   0.0000
7999 H 1.34073 -3.22109 -4.48836 H 1 RES   0.0000
8000 H 2.57977 5.10879 -1.96205 H 1 RES   0.0000
8001 H 12.9784 3.80494 1.42483 H 1 RES   0.0000
8002 H -8.97454 7.10215 -3.06432 H 1 RES   0.0000
8003 H 14.2641 9.30274 8.69906 H 1 RES   0.0000
8004 H 2.26524 4.41942 -7.29104 H 1 RES   0.0000
8005 H 12.0201 -6.4144 -1.02802 H 1 RES   0.0000
8006 H 14.126 9.61957 -12.4298 H 1 RES   0.0000
8007 H -7.28188 -2.62541 8.876 H 1 RES   0.0000
8008 H 14.3826 10.3223 3.82573 H 1 RES   0.0000
8009 H -2.47641 -10.7459 6.78872 H 1 RES   0.0000
8010 H -3.80977 10.3564 9.27574 H 1 RES   0.0000
8011 H 7.02109 8.23741 -8.67338 H 1 RES   0.0000
8012 H 11.5877 -12.2147 14.2407 H 1 RES   0.0000
8013 H -5.6077 -2.81003 13.1634 H 1 RES   0.0000
8014 H -5.97142 9.49189 -0.983876 H 1 RES   0.0000
8015 H 5.13243 11.8029 8.3729 H 1 RES   0.0000
8016 H -14.0483 13.5057 14.1511 H 1 RES   0.0000
8017 H 14.5947 1.81499 -7.38695 H 1 RES   0.0000
8018 H 10.2572 -6.50412 -4.46494 H 1 RES   0.0000
8019 H 2.5402 -4.19385 -12.7724 H 1 RES   0.0000
8020 H 3.33483 12.1878 13.3711 H 1 RES   0.0000
8021 H -10.4864 -13.3279 -13.91 H 1 RES   0.0000
8022 H -11.8135 9.07668 -14.3959 H 1 RES   0.0000
8023 H -11.8335 8.90129 10.3777 H 1 RES   0.0000
8024 H -6.16806 -0.716257 -5.78375 H 1 RES   0.0000
8025 H -9.43474 -5.71797 12.505 H 1 RES   0.0000
8026 H -1.7938 -1.93553 -0.595926 H 1 RES   0.0000
8027 H -2.6494 -4.34924 3.63035 H 1 RES   0.0000
8028 H -2.69308 14.4576 -9.51681 H 1 RES   0.0000
8029 H -4.39664 -5.84529 -10.0192 H 1 RES   0.0000
8030 H -13.3362 -3.48731 9.07445 H 1 RES   0.0000
8031 H 13.8838 -14.0198 -14.203 H 1 RES   0.0000
8032 H 2.83612 2.40163 2.90181 H 1 RES   0.0000
8033 H -14.2735 -1.51945 -14.0302 H 1 RES   0.0000
8034 H -14.4103 5.43874 6.59038 H 1 RES   0.0000
8035 H -8.92288 -10.5242 -4.75822 H 1 RES   0.0000
8036 H 6.53691 14.1812 -4.92176 H 1 RES   0.0000
8037 H 7.47853 -10.4731 -6.25775 H 1 RES   0.0000
8038 H -2.09455 -4.00435 2.78537 H 1 RES   0.0000
8039 H -10.714 -11.2504 9.83392 H 1 RES   0.0000
8040 H 8.15654 9.831 -5.22916 H 1 RES   0.0000
8041 H 6.52305 13.9717 14.0034 H 1 RES   0.0000
8042 H -10.1224 3.01443 3.89852 H 1 RES   0.0000
8043 H -1.56812 -4.90919 0.325692 H 1 RES   0.0000
8044 H -4.80123 1.03653 14.7623 H 1 RES   0.0000
8045 H -2.45365 -6.32903 -1.47203 H 1 RES   0.0000
8046 H -12.1393 11.1996 12.6615 H 1 RES   0.0000
8047 H 4.86236 -3.37451 7.14882 H 1 RES   0.0000
8048 H 0.0994589 -11.4496 -6.46898 H 1 RES   0.0000
8049 H 14.3664 -4.65279 -3.46397 H 1 RES   0.0000
8050 H -9.7319 -4.00721 1.76715 H 1 RES   0.0000
8051 H 7.49265 -0.330328 9.38937 H 1 RES   0.0000
8052 H 10.3684 4.56563 -0.0541015 H 1 RES   0.0000
8053 H -9.83752 4.73118 11.7569 H 1 RES   0.0000
8054 H 12.1134 2.26925 5.31066 H 1 RES   0.0000
8055 H -4.81969 -0.0244501 -9.82306 H 1 RES   0.0000
8056 H -4.45561 -10.7228 9.64944 H 1 RES   0.0000
8057 H 4.41815 10.8851 -2.37582 H 1 RES   0.0000
8058 H 7.35362 -1.62831 -10.2303 H 1 RES   0.0000
8059 H -3.68261 2.46607 8.45983 H 1 RES   0.0000
8060 H 0.134575 11.7798 9.91693 H 1 RES   0.0000
8061 H 12.8915 2.81197 11.0715 H 1 RES   0.0000
8062 H 1.7017 -14.8115 2.55367 H 1 RES   0.0000
8063 H -10.5912 0.50127 -11.7349 H 1 RES   0.0000
8064 H -1.45679 -5.87147 -14.7013 H 1 RES   0.0000
8065 H 2.80392 7.76708 7.98826 H 1 RES   0.0000
8066 H 7.17135 7.09157 -5.2816 H 1 RES   0.0000
8067 H -10.091 13.4356 2.50705 H 1 RES   0.0000
8068 H -11.6909 13.898 4.46711 H 1 RES   0.0000
8069 H -4.14685 2.97031 3.09947 H 1 RES   0.0000
8070 H 11.1417 11.9323 11.3581 H 1 RES   0.0000
8071 H -13.8693 -5.1885 8.6986 H 1 RES   0.0000
8072 H 11.1596 -6.83941 -4.25401 H 1 RES   0.0000
8073 H 0.00100326 7.97026 10.7525 H 1 RES   0.0000
8074 H -4.54882 10.9015 1.94806 H 1 RES   0.0000
8075 H -0.767205 -4.75636 12.3762 H 1 RES   0.0000
8076 H -12.853 3.73377 12.0875 H 1 RES   0.0000
8077 H -7.14629 7.55757 9.96857 H 1 RES   0.0000
8078 H -0.943791 -5.69861 2.16476 H 1 RES   0.0000
8079 H 9.23514 10.6299 -6.93085 H 1 RES   0.0000
8080 H 2.97899 2.67015 13.9324 H 1 RES   0.0000
8081 H -12.2362 -8.92909 -14.4347 H 1 RES   0.0000
8082 H -3.09053 7.14365 -4.06412 H 1 RES   0.0000
8083 H -6.29496 -11.6948 -13.8896 H 1 RES   0.0000
8084 H -6.99858 -3.51874 -5.0805 H 1 RES   0.0000
8085 H -3.96098 8.03222 -8.60417 H 1 RES   0.0000
8086 H -9.41305 12.6017 2.89348 H 1 RES   0.0000
8087 H 8.18595 -3.83172 -0.698359 H 1 RES   0.0000
8088 H -7.12359 -13.8674 -8.01856 H 1 RES   0.0000
8089 H -14.7285 -13.6986 -14.359 H 1 RES   0.0000
8090 H -9.35543 -9.16639 8.12291 H 1 RES   0.0000
8091 H -9.36585 7.44901 10.8021 H 1 RES   0.0000
8092 H 12.9594 -10.0387 -4.05276 H 1 RES   0.0000
8093 H 3.67408 -11.4672 -6.81227 H 1 RES   0.0000
8094 H 2.73624 -0.297449 4.30974 H 1 RES   0.0000
8095 H 0.321055 -7.39347 -6.61482 H 1 RES   0.0000
8096 H 7.36629 7.95574 8.38788 H 1 RES   0.0000
8097 H 11.9583 -8.65541 -6.90073 H 1 RES   0.0000
8098 H 2.44135 -6.52837 -0.266871 H 1 RES   0.0000
8099 H -11.0904 14.0672 9.03331 H 1 RES   0.0000
8100 H 13.0006 -14.7136 -12.0928 H 1 RES   0.0000
8101 H -6.78456 8.84901 4.25177 H 1 RES   0.0000
8102 H -14.5132 -10.4534 3.04623 H 1 RES   0.0000
8103 H 5.87445 7.18292 11.3207 H 1 RES   0.0000
8104 H -9.2111 4.06003 -3.81449 H 1 RES   0.0000
8105 H 2.59775 -10.0355 6.58604 H 1 RES   0.0000
8106 H 0.405298 -2.32046 13.2759 H 1 RES   0.0000
8107 H -0.732396 -0.871504 -2.72691 H 1 RES   0.0000
8108 H 13.3792 14.1364 7.38376 H 1 RES   0.0000
8109 H -13.2694 -4.67504 -11.6195 H 1 RES   0.0000
8110 H -11.5543 -8.16214 5.63016 H 1 RES   0.0000
8111 H -11.4336 -9.58135 5.72736 H 1 RES   0.0000
8112 H 7.09175 6.56901 -10.879 H 1 RES   0.0000
8113 H 7.82456 10.0705 -8.99049 H 1 RES   0.0000
8114 H 2.07422 -4.77064 -8.017 H 1 RES   0.0000
8115 H 7.99933 -8.62785 -14.7011 H 1 RES   0.0000
8116 H 4.4028 -8.6711 -7.5256 H 1 RES   0.0000
8117 H 7.4863 13.9666 -2.61962 H 1 RES   0.0000
8118 H -3.31832 3.6087 13.6979 H 1 RES   0.0000
8119 H -3.70596 -4.57312 -7.24165 H 1 RES   0.0000
8120 H 9.90892 -13.5169 14.528 H 1 RES   0.0000
8121 H 0.560627 -0.13998 -0.263843 H 1 RES   0.0000
8122 H 6.04281 1.57518 2.3725 H 1 RES   0.0000
8123 H 3.26666 -0.550836 -6.96928 H 1 RES   0.0000
8124 H 2.84228 -14.6347 8.17058 H 1 RES   0.0000
8125 H -3.86668 -8.44649 11.559 H 1 RES   0.0000
8126 H 5.48598 -5.42364 9.18212 H 1 RES   0.0000
8127 H -4.4404 4.71893 5.60109 H 1 RES   0.0000
8128 H -7.0271 -8.30487 -6.45319 H 1 RES   0.0000
8129 H 2.0156 4.48526 14.053 H 1 RES   0.0000
8130 H 2.72905 4.36256 3.75431 H 1 RES   0.0000
8131 H -1.60297 13.5834 10.3394 H 1 RES   0.0000
8132 H 13.6094 -9.89018 -14.5536 H 1 RES   0.0000
8133 H -12.6951 -3.43222 10.3236 H 1 RES   0.0000
8134 H -0.870962 2.06902 5.16985 H 1 RES   0.0000
8135 H -0.584852 3.09165 -14.2213 H 1 RES   0.0000
8136 H 9.10124 6.97405 -3.27246 H 1 RES   0.0000
8137 H -6.54328 -2.41101 -10.1402 H 1 RES   0.0000
8138 H -5.1173 14.5147 -0.391036 H 1 RES   0.0000
8139 H 11.2615 7.17241 3.80194 H 1 RES   0.0000
8140 H 0.56616 -1.88523 -5.64525 H 1 RES   0.0000
8141 H -3.26632 8.89658 -6.84719 H 1 RES   0.0000
8142 H 5.83112 -2.13065 -13.0432 H 1 RES   0.0000
8143 H -3.16998 7.36439 -6.25458 H 1 RES   0.0000
8144 H 3.28225 12.9736 12.6629 H 1 RES   0.0000
8145 H 3.63389 -11.2667 -4.5607 H 1 RES   0.0000
8146 H -9.26387 11.5004 6.60465 H 1 RES   0.0000
8147 H -3.2531 7.44663 -10.6147 H 1 RES   0.0000
8148 H -0.517965 12.2863 2.91207 H 1 RES   0.0000
8149 H -9.21617 12.3251 -14.0426 H 1 RES   0.0000
8150 H -3.95393 6.51598 12.8258 H 1 RES   0.0000
8151 H -13.5078 -12.2338 6.01599 H 1 RES   0.0000
8152 H 10.7815 -1.3767 -14.015 H 1 RES   0.0000
8153 H -8.97815 12.27 7.71586 H 1 RES   0.0000
8154 H -4.58122 -11.1432 5.9263 H 1 RES   0.0000
8155 H -13.8799 9.14511 11.3632 H 1 RES   0.0000
8156 H 0.310461 -10.5824 6.06052 H 1 RES   0.0000
8157 H -7.6768 10.6233 -5.54671 H 1 RES   0.0000
8158 H 11.7356 3.5676 -3.36422 H 1 RES   0.0000
8159 H -4.2634 -12.5063 -8.6576 H 1 RES   0.0000
8160 H 11.2414 7.68012 2.79625 H 1 RES   0.0000
8161 H 9.28117 1.27424 10.5864 H 1 RES   0.0000
8162 H 3.68007 -14.6149 -10.0929 H 1 RES   0.0000
8163 H -7.90743 9.22466 4.15858 H 1 RES   0.0000
8164 H 3.99497 3.32278 0.991484 H 1 RES   0.0000
8165 H -3.37254 -13.2394 1.22434 H 1 RES   0.0000
8166 H 7.73328 -10.7489 -11.746 H 1 RES   0.0000
8167 H 11.6199 3.76211 8.85402 H 1 RES   0.0000
8168 H -6.80469 9.75709 5.27244 H 1 RES   0.0000
8169 H 8.62266 -8.88597 -5.95786 H 1 RES   0.0000
8170 H -8.90516 -10.0981 11.76 H 1 RES   0.0000
8171 H 6.37068 8.60306 9.01861 H 1 RES   0.0000
8172 H -10.86 -8.35211 0.852281 H 1 RES   0.0000
8173 H -6.005 3.8855 0.428908 H 1 RES   0.0000
8174 H 13.4375 -4.24353 11.7363 H 1 RES   0.0000
8175 H 11.7224 14.0385 4.36183 H 1 RES   0.0000
8176 H 0.270258 -9.9514 11.6515 H 1 RES   0.0000
8177 H -3.97563 -13.4099 4.86213 H 1 RES   0.0000
8178 H 6.56077 -7.75401 9.97721 H 1 RES   0.0000
8179 H 13.8658 11.8946 -5.77681 H 1 RES   0.0000
8180 H -6.1085 11.1681 -13.5064 H 1 RES   0.0000
8181 H 10.0284 8.6096 -3.08778 H 1 RES   0.0000
8182 H -8.61957 11.129 1.80424 H 1 RES   0.0000
8183 H -8.16352 -6.24589 9.813 H 1 RES   0.0000
8184 H -10.929 4.08965 4.49699 H 1 RES   0.0000
8185 H 11.0195 4.09505 -0.766555 H 1 RES   0.0000
8186 H 9.79068 -9.79652 8.15149 H 1 RES   0.0000
8187 H 5.76101 -6.13152 -4.75533 H 1 RES   0.0000
8188 H 0.973938 8.95513 -4.39185 H 1 RES   0.0000
8189 H -3.59988 5.98038 11.6668 H 1 RES   0.0000
8190 H 10.513 -6.19571 8.18391 H 1 RES   0.0000
8191 H 10.5317 3.00362 -11.4099 H 1 RES   0.0000
8192 H 3.00223 6.8817 4.78983 H 1 RES   0.0000
8193 H 14.5798 -6.96556 -7.59763 H 1 RES   0.0000
8194 H 2.88276 5.47664 4.24103 H 1 RES   0.0000
8195 H -12.787 -3.65323 -11.1556 H 1 RES   0.0000
8196 H 9.59313 -7.42894 2.01963 H 1 RES   0.0000
8197 H 10.4536 11.7573 1.09955 H 1 RES   0.0000
8198 H -6.11967 -0.404982 -4.85102 H 1 RES   0.0000
8199 H -7.82277 -12.9491 4.61604 H 1 RES   0.0000
8200 H -11.6348 -1.26326 -9.55427 H 1 RES   0.0000
8201 H -8.80976 -1.92384 -5.62769 H 1 RES   0.0000
8202 H -5.44481 13.7887 13.9654 H 1 RES   0.0000
8203 H 5.42524 -8.33061 -4.19087 H 1 RES   0.0000
8204 H 9.10005 10.706 11.9799 H 1 RES   0.0000
8205 H 8.61938 -10.2064 -8.9423 H 1 RES   0.0000
8206 H -8.68751 13.4681 10.7104 H 1 RES   0.0000
8207 H -8.4535 -9.71664 0.785128 H 1 RES   0.0000
8208 H 11.9772 2.0145 0.337507 H 1 RES   0.0000
8209 H 7.67581 1.24579 -4.26945 H 1 RES   0.0000
8210 H -13.9824 -3.40621 5.80307 H 1 RES   0.0000
8211 H 11.5072 4.88755 1.03102 H 1 RES   0.0000
8212 H -7.07322 -1.37572 9.17775 H 1 RES   0.0000
8213 H -10.7809 -2.27427 12.5173 H 1 RES   0.0000
8214 H 3.46759 -9.24172 -0.874376 H 1 RES   0.0000
8215 H -2.56352 -5.56533 -12.7769 H 1 RES   0.0000
8216 H 12.9698 -0.326521 5.87074 H 1 RES   0.0000
8217 H -6.48685 -7.10786 14.6973 H 1 RES   0.0000
8218 H -1.12871 -0.0225852 6.92949 H 1 RES   0.0000
8219 H 2.83289 -5.41446 12.0548 H 1 RES   0.0000
8220 H 2.62201 12.0537 -1.69615 H 1 RES   0.0000
8221 H 3.57236 6.16755 6.72542 H 1 RES   0.0000
8222 H 14.5828 3.41121 9.97321 H 1 RES   0.0000
8223 H -1.47998 -14.7595 -12.5455 H 1 RES   0.0000
8224 H 4.98177 7.80764 -6.72936 H 1 RES   0.0000
8225 H 3.39396 13.6784 4.39693 H 1 RES   0.0000
8226 H 6.62969 -13.9472 -9.96957 H 1 RES   0.0000
8227 H -12.1998 5.9011 -13.2392 H 1 RES   0.0000
8228 H 6.5953 -14.7558 -1.63339 H 1 RES   0.0000
8229 H -13.3597 4.67958 -0.525896 H 1 RES   0.0000
8230 H 0.707415 -5.78695 1.71231 H 1 RES   0.0000
8231 H -4.92114 11.4654 -4.77056 H 1 RES   0.0000
8232 H 10.3924 -14.1056 13.16 H 1 RES   0.0000
8233 H 13.5813 7.6749 0.56225 H 1 RES   0.0000
8234 H -14.069 -3.43948 10.0616 H 1 RES   0.0000
8235 H 5.62544 -12.3209 -14.3794 H 1 RES   0.0000
8236 H -9.69231 -13.7991 13.8227 H 1 RES   0.0000
8237 H 13.174 -0.523938 8.00274 H 1 RES   0.0000
8238 H -1.75554 -2.61952 -7.43831 H 1 RES   0.0000
8239 H 11.4099 -6.90551 -10.6321 H 1 RES   0.0000
8240 H 11.7672 -10.625 -4.40356 H 1 RES   0.0000
8241 H -1.44447 -1.14236 -9.99189 H 1 RES   0.0000
8242 H -2.96394 1.40211 -12.2823 H 1 RES   0.0000
8243 H 3.55172 -3.30688 13.6989 H 1 RES   0.0000
8244 H -6.90405 12.7595 4.50183 H 1 RES   0.0000
8245 H -14.4922 -5.53053 -2.85524 H 1 RES   0.0000
8246 H 14.7201 10.0438 -8.93724 H 1 RES   0.0000
8247 H -11.2831 11.4696 -9.72127 H 1 RES   0.0000
8248 H -7.49527 -7.49155 12.51 H 1 RES   0.0000
8249 H -12.4289 11.5484 -7.31171 H 1 RES   0.0000
8250 H 10.9027 -0.970968 6.83424 H 1 RES   0.0000
8251 H 2.69161 -6.05831 -10.4998 H 1 RES   0.0000
8252 H 4.1589 -4.29008 -9.87085 H 1 RES   0.0000
8253 H 12.5582 6.40728 6.32581 H 1 RES   0.0000
8254 H -9.22469 -7.8294 -5.8113 H 1 RES   0.0000
8255 H -12.2763 12.8663 13.2841 H 1 RES   0.0000
8256 H 0.677082 -13.9099 5.23354 H 1 RES   0.0000
8257 H 11.2061 10.9285 0.703608 H 1 RES   0.0000
8258 H 14.8329 -5.28921 -7.88412 H 1 RES   0.0000
8259 H 7.83064 -9.70315 -9.53781 H 1 RES   0.0000
8260 H 12.5572 -1.08947 12.1018 H 1 RES   0.0000
8261 H -5.01145 2.65986 -10.9184 H 1 RES   0.0000
8262 H 2.57667 3.988 11.4749 H 1 RES   0.0000
8263 H 12.6368 -5.05772 -8.85284 H 1 RES   0.0000
8264 H -7.9203 11.1013 -6.52369 H 1 RES   0.0000
8265 H -6.46249 12.808 0.589502 H 1 RES   0.0000
8266 H 9.45717 7.8135 -1.91459 H 1 RES   0.0000
8267 H -8.55296 -1.78645 -7.4807 H 1 RES   0.0000
8268 H -2.72403 11.7016 -2.50356 H 1 RES   0.0000
8269 H -8.48814 5.10139 -13.1208 H 1 RES   0.0000
8270 H -9.63559 -7.37503 -13.6551 H 1 RES   0.0000
8271 H -10.9316 -11.9495 -10.4486 H 1 RES   0.0000
8272 H -11.5703 -2.42448 -9.3279 H 1 RES   0.0000
8273 H -0.982994 -5.50952 -4.98636 H 1 RES   0.0000
8274 H 7.89074 -9.74894 0.533422 H 1 RES   0.0000
8275 H 7.76893 0.429664 -12.8962 H 1 RES   0.0000
8276 H -3.08627 -3.3036 -7.73357 H 1 RES   0.0000
8277 H 7.63093 9.07713 -6.30054 H 1 RES   0.0000
8278 H 12.2782 1.72941 7.92299 H 1 RES   0.0000
8279 H 4.51523 -0.849757 10.4351 H 1 RES   0.0000
8280 H 11.2084 10.4184 6.75588 H 1 RES   0.0000
8281 H -13.0922 -6.30605 3.09111 H 1 RES   0.0000
8282 H 6.64267 -6.04241 -3.40872 H 1 RES   0.0000
8283 H -11.8935 7.86576 -3.07201 H 1 RES   0.0000
8284 H 3.289 -12.0668 0.534 H 1 RES   0.0000
8285 H -11.6315 8.79013 -10.8751 H 1 RES   0.0000
8286 H 6.59619 -2.08729 -11.6422 H 1 RES   0.0000
8287 H 1.63458 12.6793 -11.8917 H 1 RES   0.0000
8288 H -10.2158 13.6734 0.457325 H 1 RES   0.0000
8289 H 13.7691 10.773 8.10793 H 1 RES   0.0000
8290 H 4.4175 -2.90766 -12.8371 H 1 RES   0.0000
8291 H -5.81058 5.72381 -5.42042 H 1 RES   0.0000
8292 H 3.44844 -9.30796 -12.6189 H 1 RES   0.0000
8293 H 9.88565 2.06592 0.502952 H 1 RES   0.0000
8294 H -4.21185 -4.91245 -8.09013 H 1 RES   0.0000
8295 H 4.92743 -3.12102 -10.5059 H 1 RES   0.0000
8296 H 8.38325 -2.88736 0.761011 H 1 RES   0.0000
8297 H 8.19029 4.65896 5.53183 H 1 RES   0.0000
8298 H -11.9214 -4.13118 12.2584 H 1 RES   0.0000
8299 H 2.21948 13.9756 6.12957 H 1 RES   0.0000
8300 H 13.5102 11.5396 -3.69176 H 1 RES   0.0000
8301 H -6.6897 -12.4235 8.5372 H 1 RES   0.0000
8302 H 11.8629 -5.83623 -5.10351 H 1 RES   0.0000
8303 H -3.29973 2.00296 -2.61 H 1 RES   0.0000
8304 H 14.3546 4.19883 4.43713 H 1 RES   0.0000
8305 H 8.26094 -0.656125 0.248968 H 1 RES   0.0000
8306 H 5.26011 -8.60373 12.9252 H 1 RES   0.0000
8307 H -2.95577 -4.92052 14.3831 H 1 RES   0.0000
8308 H -5.75399 -10.1014 4.43967 H 1 RES   0.0000
8309 H -7.01025 5.4917 0.669795 H 1 RES   0.0000
8310 H -13.8503 4.00283 12.9192 H 1 RES   0.0000
8311 H -2.78027 10.9316 9.3013 H 1 RES   0.0000
8312 H -12.2885 -12.3905 2.63331 H 1 RES   0.0000
8313 H -5.13466 12.6552 4.26068 H 1 RES   0.0000
8314 H -13.0296 -5.95864 0.524584 H 1 RES   0.0000
8315 H -7.95285 -3.00469 4.55313 H 1 RES   0.0000
8316 H 4.738 1.41707 -14.0341 H 1 RES   0.0000
8317 H -8.37656 4.76535 -1.81613 H 1 RES   0.0000
8318 H -1.19632 7.77183 12.2017 H 1 RES   0.0000
8319 H -4.58348 14.563 14.3328 H 1 RES   0.0000
8320 H -12.7006 -14.2778 10.5431 H 1 RES   0.0000
8321 H 8.82103 8.69456 -3.30686 H 1 RES   0.0000
8322 H -3.86325 -6.33941 4.78959 H 1 RES   0.0000
8323 H -9.37978 14.713 -1.07175 H 1 RES   0.0000
8324 H -6.9028 -11.8543 7.53523 H 1 RES   0.0000
8325 H -7.07491 -10.5759 -10.0746 H 1 RES   0.0000
8326 H -2.79636 4.37761 1.17706 H 1 RES   0.0000
8327 H 5.76634 -6.54696 13.7291 H 1 RES   0.0000
8328 H -9.25461 -10.6596 13.1745 H 1 RES   0.0000
8329 H 1.69874 3.01251 -2.03651 H 1 RES   0.0000
8330 H 12.9117 5.36315 -14.7308 H 1 RES   0.0000
8331 H -13.5767 6.77337 -9.61905 H 1 RES   0.0000
8332 H 1.20946 -9.2066 1.73766 H 1 RES   0.0000
8333 H -13.1061 -4.00693 -5.83501 H 1 RES   0.0000
8334 H -3.39215 4.13132 -2.0503 H 1 RES   0.0000
8335 H -14.035 9.88478 -1.04156 H 1 RES   0.0000
8336 H 6.80698 -4.23977 -14.5232 H 1 RES   0.0000
8337 H -0.449169 2.78256 -9.4972 H 1 RES   0.0000
8338 H 7.73238 5.04894 -4.30664 H 1 RES   0.0000
8339 H 4.65432 -5.15127 -10.7041 H 1 RES   0.0000
8340 H -2.84387 14.4082 8.62816 H 1 RES   0.0000
8341 H 3.67663 5.04612 0.157963 H 1 RES   0.0000
8342 H -0.0828215 -3.69346 -14.1995 H 1 RES   0.0000
8343 H 5.37923 -3.41755 -3.11314 H 1 RES   0.0000
8344 H -7.89987 10.0503 -2.25863 H 1 RES   0.0000
8345 H 1.9651 0.811535 -2.67023 H 1 RES   0.0000
8346 H -3.70273 -7.70475 10.6731 H 1 RES   0.0000
8347 H 1.62969 -3.32717 1.64732 H 1 RES   0.0000
8348 H -0.412512 -8.14862 -3.35252 H 1 RES   0.0000
8349 H -10.7221 -12.5907 -7.10155 H 1 RES   0.0000
8350 H -12.9842 5.35613 -13.6473 H 1 RES   0.0000
8351 H -10.8749 -9.15339 3.61784 H 1 RES   0.0000
8352 H -10.6837 -13.567 -6.03092 H 1 RES   0.0000
8353 H -4.66004 -10.2021 4.56911 H 1 RES   0.0000
8354 H -10.3846 5.56656 -9.80729 H 1 RES   0.0000
8355 H -9.60222 10.5958 10.808 H 1 RES   0.0000
8356 H -0.18729 -11.0771 -3.42649 H 1 RES   0.0000
8357 H 13.1871 -5.50149 -10.031 H 1 RES   0.0000
8358 H -9.16935 -13.2948 9.73755 H 1 RES   0.0000
8359 H -8.42804 8.02266 -13.3377 H 1 RES   0.0000
8360 H 4.58136 -1.60719 8.49239 H 1 RES   0.0000
8361 H 5.12742 -12.6963 -5.32116 H 1 RES   0.0000
8362 H 11.3121 7.71624 13.6065 H 1 RES   0.0000
8363 H 7.24833 8.92557 -14.2442 H 1 RES   0.0000
8364 H -9.70279 3.17541 -2.3741 H 1 RES   0.0000
8365 H -10.347 -14.456 9.54822 H 1 RES   0.0000
8366 H 14.419 13.714 4.1909 H 1 RES   0.0000
8367 H -0.504189 -8.65266 -4.35331 H 1 RES   0.0000
8368 H -4.48856 -6.27722 -8.72005 H 1 RES   0.0000
8369 H 14.275 -3.21879 -11.0107 H 1 RES   0.0000
8370 H 0.674991 -7.18116 4.39669 H 1 RES   0.0000
8371 H 5.99935 1.59301 6.06956 H 1 RES   0.0000
8372 H 13.8087 1.03046 13.1389 H 1 RES   0.0000
8373 H 6.53594 -6.49892 4.75179 H 1 RES   0.0000
8374 H -7.36509 2.1267 10.856 H 1 RES   0.0000
8375 H -5.52772 -2.08568 -11.8965 H 1 RES   0.0000
8376 H -14.6716 9.04623 10.3679 H 1 RES   0.0000
8377 H 13.9288 -4.20083 7.31915 H 1 RES   0.0000
8378 H 11.1207 5.70341 -3.49454 H 1 RES   0.0000
8379 H -8.70689 3.38032 3.81138 H 1 RES   0.0000
8380 H 1.293 -12.0159 -2.1512 H 1 RES   0.0000
8381 H 11.2998 7.87274 -3.23936 H 1 RES   0.0000
8382 H 9.14628 -12.6545 -2.02717 H 1 RES   0.0000
8383 H -4.42457 -6.78286 3.65104 H 1 RES   0.0000
8384 H 12.7242 -14.4576 -6.59547 H 1 RES   0.0000
8385 H -14.7876 12.2763 -10.3585 H 1 RES   0.0000
8386 H -1.49604 8.35788 2.32728 H 1 RES   0.0000
8387 H 3.73244 -3.61038 12.5696 H 1 RES   0.0000
8388 H 5.06788 1.17297 -5.92633 H 1 RES   0.0000
8389 H -0.684353 12.4597 -0.360119 H 1 RES   0.0000
8390 H -13.4757 1.57116 11.8898 H 1 RES   0.0000
8391 H -14.6604 5.41514 -0.298404 H 1 RES   0.0000
8392 H 6.16921 -5.29706 10.4653 H 1 RES   0.0000
8393 H 0.517905 11.9806 4.91301 H 1 RES   0.0000
8394 H 1.59859 8.62838 -13.4568 H 1 RES   0.0000
8395 H 11.8965 -11.6392 -7.53225 H 1 RES   0.0000
8396 H 7.54122 0.275879 -2.85487 H 1 RES   0.0000
8397 H 10.9617 3.87371 9.84399 H 1 RES   0.0000
8398 H -1.00705 4.75924 -14.6362 H 1 RES   0.0000
8399 H -4.21152 0.82243 5.09295 H 1 RES   0.0000
8400 H -9.15064 -8.95104 -14.0659 H 1 RES   0.0000
8401 H 0.489383 -0.443093 11.792 H 1 RES   0.0000
8402 H 12.6267 7.84387 6.12714 H 1 RES   0.0000
8403 H 8.55214 -10.9113 -5.46263 H 1 RES   0.0000
8404 H 0.866867 0.067533 7.62292 H 1 RES   0.0000
8405 H -10.0205 -1.62561 11.208 H 1 RES   0.0000
8406 H -14.499 1.39833 -11.5321 H 1 RES   0.0000
8407 H 10.4912 10.3338 -6.6912 H 1 RES   0.0000
8408 H -0.483651 -13.4968 14.4029 H 1 RES   0.0000
8409 H 7.19008 -6.63912 -2.23757 H 1 RES   0.0000
8410 H 3.25679 3.61277 13.2432 H 1 RES   0.0000
8411 H -2.22691 5.94018 -1.9034 H 1 RES   0.0000
8412 H -11.5741 5.36795 -10.0811 H 1 RES   0.0000
8413 H 2.43582 2.16821 -14.6179 H 1 RES   0.0000
8414 H 2.91007 7.73211 10.0814 H 1 RES   0.0000
8415 H 11.1322 -1.08258 12.6211 H 1 RES   0.0000
8416 H 6.35945 10.1261 -12.9072 H 1 RES   0.0000
8417 H 8.72417 9.99804 -11.4783 H 1 RES   0.0000
8418 H -2.51725 13.6884 -10.4708 H 1 RES   0.0000
8419 H -1.19843 -0.26055 11.4238 H 1 RES   0.0000
8420 H 9.37659 9.50405 -10.1638 H 1 RES   0.0000
8421 H 2.40112 -7.93029 -3.11828 H 1 RES   0.0000
8422 H 12.8502 6.40933 -0.266395 H 1 RES   0.0000
8423 H -11.3733 10.4569 -6.98934 H 1 RES   0.0000
8424 H 6.44615 8.14366 -2.27359 H 1 RES   0.0000
8425 H -13.3926 -11.0466 1.48983 H 1 RES   0.0000
8426 H 12.5815 -10.7588 -5.52372 H 1 RES   0.0000
8427 H -11.236 -4.30278 -0.44641 H 1 RES   0.0000
8428 H -0.820847 -14.1445 3.94966 H 1 RES   0.0000
8429 H 3.39535 3.75555 14.2319 H 1 RES   0.0000
8430 H -12.3933 2.3124 -3.22846 H 1 RES   0.0000
8431 H -6.40132 14.7655 -1.5409 H 1 RES   0.0000
8432 H 12.0315 -14.1363 2.89001 H 1 RES   0.0000
8433 H -11.2348 -12.0433 5.76481 H 1 RES   0.0000
8434 H 11.2272 8.88342 -14.6927 H 1 RES   0.0000
8435 H -14.0386 -10.5297 2.14152 H 1 RES   0.0000
8436 H -9.15468 -6.22826 11.4329 H 1 RES   0.0000
8437 H 13.6353 10.0873 -1.70055 H 1 RES   0.0000
8438 H 3.18144 0.330589 -9.40947 H 1 RES   0.0000
8439 H 1.58442 1.83588 0.814777 H 1 RES   0.0000
8440 H -12.7747 5.77846 -1.72327 H 1 RES   0.0000
8441 H 13.5009 3.47255 -6.42447 H 1 RES   0.0000
8442 H 7.07848 -1.11348 6.69592 H 1 RES   0.0000
8443 H -3.06776 1.32612 5.01238 H 1 RES   0.0000
8444 H -10.7627 2.82878 4.84389 H 1 RES   0.0000
8445 H -0.493094 -10.5653 -2.25887 H 1 RES   0.0000
8446 H 8.36115 -11.9603 -14.8335 H 1 RES   0.0000
8447 H -11.4463 12.7866 -4.8125 H 1 RES   0.0000
8448 H -14.322 10.0344 3.27967 H 1 RES   0.0000
8449 H 12.7663 -14.1816 4.88821 H 1 RES   0.0000
8450 H -3.70721 -2.91099 1.28453 H 1 RES   0.0000
8451 H 4.56293 12.726 -6.61969 H 1 RES   0.0000
8452 H 3.87207 -14.281 -11.3638 H 1 RES   0.0000
8453 H -13.5148 -8.93477 13.2477 H 1 RES   0.0000
8454 H -6.50124 6.01404 13.6136 H 1 RES   0.0000
8455 H -2.3501 0.441975 10.0755 H 1 RES   0.0000
8456 H -1.85768 -1.36028 -7.9476 H 1 RES   0.0000
8457 H 12.3428 7.48814 -10.6234 H 1 RES   0.0000
8458 H -9.09418 -1.5937 13.7347 H 1 RES   0.0000
8459 H -4.09125 -5.9192 -7.40084 H 1 RES   0.0000
8460 H -1.28437 -14.4531 -10.2189 H 1 RES   0.0000
8461 H -6.86128 -10.8593 14.0956 H 1 RES   0.0000
8462 H 11.8773 4.65192 -10.7416 H 1 RES   0.0000
8463 H 11.5091 -2.36924 -1.35984 H 1 RES   0.0000
8464 H -3.53583 -6.0048 13.3343 H 1 RES   0.0000
8465 H -4.33851 13.3929 5.89492 H 1 RES   0.0000
8466 H 8.75164 -5.76424 -4.66164 H 1 RES   0.0000
8467 H 8.83522 -3.71102 2.40627 H 1 RES   0.0000
8468 H -10.7288 -5.40155 12.1118 H 1 RES   0.0000
8469 H -13.6523 -4.11143 6.86623 H 1 RES   0.0000
8470 H -1.27887 -11.6584 8.18364 H 1 RES   0.0000
8471 H 14.1432 13.0768 -10.1774 H 1 RES   0.0000
8472 H -12.1003 1.17119 -3.8025 H 1 RES   0.0000
8473 H 5.43179 13.7033 -9.62597 H 1 RES   0.0000
8474 H 2.86496 8.91981 13.7727 H 1 RES   0.0000
8475 H 7.67048 -11.8028 -13.9519 H 1 RES   0.0000
8476 H -5.31371 -14.2926 12.5206 H 1 RES   0.0000
8477 H 7.83176 14.1651 -0.440894 H 1 RES   0.0000
8478 H -2.05781 -10.593 0.34048 H 1 RES   0.0000
8479 H -14.3624 -9.62286 -13.4681 H 1 RES   0.0000
8480 H 9.58977 12.6078 -9.59147 H 1 RES   0.0000
8481 H 6.22973 -0.883954 9.31083 H 1 RES   0.0000
8482 H 13.7033 9.98958 14.0204 H 1 RES   0.0000
8483 H -4.08297 1.70637 -1.87301 H 1 RES   0.0000
8484 H -11.0894 12.803 2.16249 H 1 RES   0.0000
8485 H -4.24596 10.1919 -7.11175 H 1 RES   0.0000
8486 H -6.67184 -12.3359 0.139261 H 1 RES   0.0000
8487 H 1.99773 -7.38741 -14.0999 H 1 RES   0.0000
8488 H 12.9653 -13.8592 -3.8844 H 1 RES   0.0000
8489 H 13.6756 -9.72597 -5.04585 H 1 RES   0.0000
8490 H -10.7601 -7.87661 1.72937 H 1 RES   0.0000
8491 H 2.30818 -1.79084 9.29333 H 1 RES   0.0000
8492 H 8.77033 6.44435 -11.8335 H 1 RES   0.0000
8493 H 3.54573 -9.95319 2.0741 H 1 RES   0.0000
8494 H -8.89722 6.85123 -5.69579 H 1 RES   0.0000
8495 H 13.2159 6.33496 12.9583 H 1 RES   0.0000
8496 H 2.44469 12.8329 0.168647 H 1 RES   0.0000
8497 H 8.57513 -1.22344 -13.6356 H 1 RES   0.0000
8498 H -13.223 -2.78993 -7.3096 H 1 RES   0.0000
8499 H 13.1983 2.75953 -4.92773 H 1 RES   0.0000
8500 H -0.985061 -12.6617 -2.44078 H 1 RES   0.0000
8501 H 0.788069 0.555598 -1.3747 H 1 RES   0.0000
8502 H 2.96675 13.4689 -12.8641 H 1 RES   0.0000
8503 H -7.65379 12.8059 0.296818 H 1 RES   0.0000
8504 H 9.60604 13.6223 -8.71079 H 1 RES   0.0000
8505 H 0.342856 -12.1879 4.6518 H 1 RES   0.0000
8506 H -1.7975 -12.3646 -6.51158 H 1 RES   0.0000
8507 H 13.4744 12.1036 2.93353 H 1 RES   0.0000
8508 H -2.88467 12.9903 1.29164 H 1 RES   0.0000
8509 H -0.546796 2.53095 -8.51215 H 1 RES   0.0000
8510 H 5.67352 -11.6676 -8.07213 H 1 RES   0.0000
8511 H -2.24271 -4.86167 4.53003 H 1 RES   0.0000
8512 H 4.38148 -9.07078 13.2155 H 1 RES   0.0000
8513 H -4.6425 2.29272 12.7312 H 1 RES   0.0000
8514 H 6.24643 3.34263 12.7096 H 1 RES   0.0000
8515 H -9.47582 3.89192 -5.10322 H 1 RES   0.0000
8516 H -13.6155 7.76921 -6.69026 H 1 RES   0.0000
8517 H 4.84065 6.59548 11.7869 H 1 RES   0.0000
8518 H -9.96999 12.9448 -1.59503 H 1 RES   0.0000
8519 H -3.59321 -6.93808 6.0958 H 1 RES   0.0000
8520 H 10.071 -6.82128 -9.78671 H 1 RES   0.0000
8521 H -10.2823 14.1175 11.805 H 1 RES   0.0000
8522 H 8.67923 -9.45577 -0.976359 H 1 RES   0.0000
8523 H -2.6402 6.98185 8.56769 H 1 RES   0.0000
8524 H 6.12822 10.36 5.59173 H 1 RES   0.0000
8525 H 11.0847 3.87427 -6.28843 H 1 RES   0.0000
8526 H -4.95474 -1.17716 0.94618 H 1 RES   0.0000
8527 H -2.02511 -13.6261 -8.98969 H 1 RES   0.0000
8528 H -11.2927 6.47124 3.88841 H 1 RES   0.0000
8529 H 6.28587 9.93873 -14.2201 H 1 RES   0.0000
8530 H 6.75657 12.8461 5.67548 H 1 RES   0.0000
8531 H -6.85111 6.06299 -8.85199 H 1 RES   0.0000
8532 H 11.506 2.80611 -8.62569 H 1 RES   0.0000
8533 H 3.57959 -6.48318 -10.8641 H 1 RES   0.0000
8534 H 5.33972 7.72332 6.21449 H 1 RES   0.0000
8535 H 0.661812 -7.82965 -12.672 H 1 RES   0.0000
8536 H -7.09056 11.3352 -1.6861 H 1 RES   0.0000
8537 H 10.3757 -11.5187 -2.71737 H 1 RES   0.0000
8538 H -12.6354 6.17757 -6.365 H 1 RES   0.0000
8539 H 3.37907 0.26607 -5.69523 H 1 RES   0.0000
8540 H 7.37475 -9.10141 5.63648 H 1 RES   0.0000
8541 H -10.639 14.5208 2.2283 H 1 RES   0.0000
8542 H -11.5932 -7.28598 0.123006 H 1 RES   0.0000
8543 H 0.412342 14.175 -10.2546 H 1 RES   0.0000
8544 H 7.65185 14.1864 -8.00126 H 1 RES   0.0000
8545 H -9.58181 10.5483 5.4223 H 1 RES   0.0000
8546 H -8.92265 -0.0634878 -14.3768 H 1 RES   0.0000
8547 H 4.11779 12.9995 1.97259 H 1 RES   0.0000
8548 H 7.63429 1.68811 -11.9085 H 1 RES   0.0000
8549 H 6.4326 -13.4456 12.5741 H 1 RES   0.0000
8550 H -14.2794 -8.57055 7.75459 H 1 RES   0.0000
8551 H -5.95915 -3.71008 -5.69663 H 1 RES   0.0000
8552 H -14.5244 11.5987 5.96965 H 1 RES   0.0000
8553 H 9.82506 12.1359 8.30225 H 1 RES   0.0000
8554 H 14.5563 -13.4583 1.34452 H 1 RES   0.0000
8555 H 13.5272 -6.97503 -8.2186 H 1 RES   0.0000
8556 H 7.49799 -4.05219 13.4221 H 1 RES   0.0000
8557 H -11.1769 -14.1376 -4.73548 H 1 RES   0.0000
8558 H -13.4222 -12.7765 13.5642 H 1 RES   0.0000
8559 H -12.0011 0.04125 -1.3324 H 1 RES   0.0000
8560 H 0.909186 14.7521 -3.03653 H 1 RES   0.0000
8561 H -5.31697 -14.792 -1.47726 H 1 RES   0.0000
8562 H 9.69025 7.10323 0.0377908 H 1 RES   0.0000
8563 H -5.52032 -14.5112 -13.6333 H 1 RES   0.0000
8564 H 1.50548 -11.882 -13.1687 H 1 RES   0.0000
8565 H 3.44591 2.47254 1.73998 H 1 RES   0.0000
8566 H 6.82606 0.1198 8.48907 H 1 RES   0.0000
8567 H -9.4494 -14.6482 6.26835 H 1 RES   0.0000
8568 H 1.49771 2.21352 -9.83549 H 1 RES   0.0000
8569 H -3.02112 -14.4904 -2.13186 H 1 RES   0.0000
8570 H -9.66151 -3.18883 13.4785 H 1 RES   0.0000
8571 H 5.31587 -3.78722 -12.877 H 1 RES   0.0000
8572 H 6.69915 -2.85358 11.858 H 1 RES   0.0000
8573 H -5.35222 5.64736 -8.81632 H 1 RES   0.0000
8574 H -7.5117 5.2026 -8.80605 H 1 RES   0.0000
8575 H -4.84148 -13.4138 -11.4557 H 1 RES   0.0000
8576 H -2.96578 14.196 -3.19731 H 1 RES   0.0000
8577 H 0.751986 2.7686 -10.5282 H 1 RES   0.0000
8578 H 2.17637 7.05877 1.85651 H 1 RES   0.0000
8579 H 7.78624 9.10883 -1.36732 H 1 RES   0.0000
8580 H -4.71362 12.2149 -3.55198 H 1 RES   0.0000
8581 H -13.0847 -1.17828 -13.771 H 1 RES   0.0000
8582 H 0.328917 -9.17604 6.81486 H 1 RES   0.0000
8583 H 5.38211 -5.18231 -2.10277 H 1 RES   0.0000
8584 H 5.25222 -0.884299 -11.153 H 1 RES   0.0000
8585 H -2.82021 3.80417 3.66342 H 1 RES   0.0000
8586 H -10.4004 -0.962183 2.70484 H 1 RES   0.0000
8587 H 11.9241 -7.56074 14.0291 H 1 RES   0.0000
8588 H 9.10381 2.85883 11.6549 H 1 RES   0.0000
8589 H 4.99175 0.772616 8.41974 H 1 RES   0.0000
8590 H -13.4945 -6.00644 -12.643 H 1 RES   0.0000
8591 H -7.63286 -7.54697 2.02479 H 1 RES   0.0000
8592 H -2.31288 -4.06038 -10.7219 H 1 RES   0.0000
8593 H 3.33733 -11.1052 2.32031 H 1 RES   0.0000
8594 H -7.53893 1.93904 -7.99886 H 1 RES   0.0000
8595 H -12.9525 -9.49584 1.78329 H 1 RES   0.0000
8596 H 13.0648 -6.18439 11.9862 H 1 RES   0.0000
8597 H -5.68535 -8.46627 9.47789 H 1 RES   0.0000
8598 H -14.679 13.8424 5.89332 H 1 RES   0.0000
8599 H -9.0319 13.2794 4.74022 H 1 RES   0.0000
8600 H -12.4591 1.14995 -13.152 H 1 RES   0.0000
8601 H -12.8886 10.4274 14.5069 H 1 RES   0.0000
8602 H 7.15041 14.0273 -5.7464 H 1 RES   0.0000
8603 H 6.49385 6.74674 -8.88255 H 1 RES   0.0000
8604 H 2.30336 1.8477 12.0671 H 1 RES   0.0000
8605 H 14.6181 -5.73412 -11.3761 H 1 RES   0.0000
8606 H -2.73948 10.0386 -9.17949 H 1 RES   0.0000
8607 H -14.0584 2.80009 -13.6045 H 1 RES   0.0000
8608 H -0.902716 0.891043 -0.191609 H 1 RES   0.0000
8609 H -13.9016 0.788326 11.0976 H 1 RES   0.0000
8610 H -9.84256 -9.22782 4.36967 H 1 RES   0.0000
8611 H 11.5088 3.42783 12.7413 H 1 RES   0.0000
8612 H -13.4874 -0.832121 -8.83616 H 1 RES   0.0000
8613 H -7.68514 10.7022 4.77946 H 1 RES   0.0000
8614 H 6.01983 2.25851 9.00805 H 1 RES   0.0000
8615 H 8.82183 12.3126 -7.72531 H 1 RES   0.0000
8616 H -1.80336 -13.4751 -0.731508 H 1 RES   0.0000
8617 H -9.45988 14.4635 5.40082 H 1 RES   0.0000
8618 H -3.66251 11.1447 -14.1379 H 1 RES   0.0000
8619 H 1.83451 -13.268 -12.0043 H 1 RES   0.0000
8620 H -0.420773 0.264591 -1.6377 H 1 RES   0.0000
8621 H 13.3126 -12.6068 -9.04922 H 1 RES   0.0000
8622 H -0.611401 -9.1424 11.6756 H 1 RES   0.0000
8623 H -2.81127 -10.1501 13.5661 H 1 RES   0.0000
8624 H 13.0816 3.67134 -8.11345 H 1 RES   0.0000
8625 H -10.36 -0.106513 5.24515 H 1 RES   0.0000
8626 H -9.12461 -6.50554 14.2144 H 1 RES   0.0000
8627 H 4.45062 6.05796 -11.5982 H 1 RES   0.0000
8628 H 2.77361 10.7732 4.35695 H 1 RES   0.0000
8629 H -13.3925 -1.88063 -1.93615 H 1 RES   0.0000
8630 H -8.93072 -10.193 -5.92563 H 1 RES   0.0000
8631 H 1.55897 12.4677 11.4517 H 1 RES   0.0000
8632 H -1.22725 10.8621 12.8818 H 1 RES   0.0000
8633 H 8.08146 -0.102532 -6.86914 H 1 RES   0.0000
8634 H 4.33045 8.60131 6.6948 H 1 RES   0.0000
8635 H -13.0664 5.28213 -11.0275 H 1 RES   0.0000
8636 H 6.36398 3.82133 5.76493 H 1 RES   0.0000
8637 H -3.68864 -6.7281 0.40451 H 1 RES   0.0000
8638 H 11.684 -6.9817 -11.8262 H 1 RES   0.0000
8639 H -10.5673 -6.64071 6.66597 H 1 RES   0.0000
8640 H 4.31115 -11.204 -3.06944 H 1 RES   0.0000
8641 H -14.8454 -11.9315 6.75954 H 1 RES   0.0000
8642 H -2.47548 7.48156 13.6576 H 1 RES   0.0000
8643 H -13.3177 -1.83518 4.03166 H 1 RES   0.0000
8644 H 9.42122 -2.44658 -11.2178 H 1 RES   0.0000
8645 H 8.62094 -4.6535 -4.17168 H 1 RES   0.0000
8646 H 4.96467 12.1688 -12.4881 H 1 RES   0.0000
8647 H 11.7412 1.70922 -13.9201 H 1 RES   0.0000
8648 H 11.7921 -6.25602 2.44821 H 1 RES   0.0000
8649 H 1.39598 -9.78789 -4.3117 H 1 RES   0.0000
8650 H 5.09473 11.9012 5.16218 H 1 RES   0.0000
8651 H -14.483 6.21092 -11.8817 H 1 RES   0.0000
8652 H 2.26931 -13.1796 1.49067 H 1 RES   0.0000
8653 H -5.1319 10.9312 -12.9806 H 1 RES   0.0000
8654 H 12.0108 -2.05524 14.166 H 1 RES   0.0000
8655 H 0.87563 8.42187 -11.7115 H 1 RES   0.0000
8656 H 10.4314 7.90564 -10.2764 H 1 RES   0.0000
8657 H 14.5245 3.02342 11.7782 H 1 RES   0.0000
8658 H 2.90394 5.98706 -13.6425 H 1 RES   0.0000
8659 H -14.5372 -4.64396 14.4005 H 1 RES   0.0000
8660 H -9.89436 -13.7526 -11.0966 H 1 RES   0.0000
8661 H -11.5002 -11.2575 10.8363 H 1 RES   0.0000
8662 H 6.87902 -7.62004 -13.2793 H 1 RES   0.0000
8663 H 2.12621 -9.03513 -7.23375 H 1 RES   0.0000
8664 H -9.77621 8.67601 6.14662 H 1 RES   0.0000
8665 H 4.94419 -7.83403 -9.08178 H 1 RES   0.0000
8666 H 13.1662 -14.2506 10.4721 H 1 RES   0.0000
8667 H 7.95516 2.54446 -5.77891 H 1 RES   0.0000
8668 H 12.7949 -7.86744 12.6713 H 1 RES   0.0000
8669 H -6.09272 -13.0826 -13.7585 H 1 RES   0.0000
8670 H 5.0009 -2.34384 1.40783 H 1 RES   0.0000
8671 H 10.3078 8.43284 11.9769 H 1 RES   0.0000
8672 H 11.2898 8.68285 9.43632 H 1 RES   0.0000
8673 H -8.17722 9.53281 5.25797 H 1 RES   0.0000
8674 H 4.7679 11.0294 11.5191 H 1 RES   0.0000
8675 H -5.18773 -14.6898 7.93468 H 1 RES   0.0000
8676 H -10.8333 7.37116 -0.787247 H 1 RES   0.0000
8677 H -7.09743 13.6682 14.4554 H 1 RES   0.0000
8678 H -0.951432 11.6621 -1.25241 H 1 RES   0.0000
8679 H -2.8813 9.52338 -3.0441 H 1 RES   0.0000
8680 H -2.7831 2.34451 -7.09065 H 1 RES   0.0000
8681 H -13.1871 5.45256 -12.2736 H 1 RES   0.0000
8682 H 8.71745 8.14242 -7.29322 H 1 RES   0.0000
8683 H 7.73683 -3.03258 7.64861 H 1 RES   0.0000
8684 H 6.17554 4.02903 -14.7661 H 1 RES   0.0000
8685 H 10.0276 11.1291 -1.07518 H 1 RES   0.0000
8686 H 7.21084 1.74091 13.4439 H 1 RES   0.0000
8687 H -2.91977 -12.4838 5.50245 H 1 RES   0.0000
8688 H -5.74099 -8.45375 6.05616 H 1 RES   0.0000
8689 H -14.4396 1.87135 -0.82152 H 1 RES   0.0000
8690 H 4.03995 -10.8974 0.905905 H 1 RES   0.0000
8691 H -12.3384 14.7626 -0.939929 H 1 RES   0.0000
8692 H -12.8715 12.6612 -13.0718 H 1 RES   0.0000
8693 H 13.8172 3.83104 7.40587 H 1 RES   0.0000
8694 H 11.286 -3.63018 -4.34715 H 1 RES   0.0000
8695 H 1.40737 -12.7374 -13.7019 H 1 RES   0.0000
8696 H -5.77133 8.79982 -9.14433 H 1 RES   0.0000
8697 H 2.81752 -6.21622 1.21228 H 1 RES   0.0000
8698 H -8.08766 13.9113 -2.96609 H 1 RES   0.0000
8699 H -11.9004 -7.78937 7.38092 H 1 RES   0.0000
8700 H -9.46588 11.7078 13.9331 H 1 RES   0.0000
8701 H 9.56556 4.55576 11.6107 H 1 RES   0.0000
8702 H 9.39911 -6.36253 -6.15663 H 1 RES   0.0000
8703 H -9.36811 -14.3967 4.4418 H 1 RES   0.0000
8704 H 7.89668 -5.34072 0.344873 H 1 RES   0.0000
8705 H 7.41528 -2.03828 11.8086 H 1 RES   0.0000
8706 H -8.10853 -12.1649 -8.14753 H 1 RES   0.0000
8707 H 10.006 -11.0646 -7.55119 H 1 RES   0.0000
8708 H -0.86237 -13.672 -2.92041 H 1 RES   0.0000
8709 H 2.61584 14.5466 -0.746796 H 1 RES   0.0000
8710 H -8.20499 -9.71612 11.2665 H 1 RES   0.0000
8711 H 9.41869 -4.93048 -2.27654 H 1 RES   0.0000
8712 H -1.47237 13.9356 -1.60037 H 1 RES   0.0000
8713 H -3.82288 -4.68626 11.3718 H 1 RES   0.0000
8714 H 0.0827861 -0.939143 4.42238 H 1 RES   0.0000
8715 H 3.2119 14.461 -9.23101 H 1 RES   0.0000
8716 H 14.538 -6.57237 14.0095 H 1 RES   0.0000
8717 H -3.28966 -13.0906 2.97631 H 1 RES   0.0000
8718 H 6.76702 -5.15238 -1.14648 H 1 RES   0.0000
8719 H 13.8364 1.25742 2.0472 H 1 RES   0.0000
8720 H -12.2942 -3.36817 -8.98364 H 1 RES   0.0000
8721 H 2.88494 -6.38245 12.4892 H 1 RES   0.0000
8722 H -11.2894 -6.68979 2.12472 H 1 RES   0.0000
8723 H 13.491 8.46048 8.18581 H 1 RES   0.0000
8724 H -5.70556 1.40244 -12.1895 H 1 RES   0.0000
8725 H -13.0067 11.7952 -3.76525 H 1 RES   0.0000
8726 H -8.36776 14.0115 11.8349 H 1 RES   0.0000
8727 H -2.84105 -6.27067 6.81432 H 1 RES   0.0000
8728 H -9.78522 -3.7671 -2.32778 H 1 RES   0.0000
8729 H -5.59477 13.7152 12.8831 H 1 RES   0.0000
8730 H -6.76454 -12.3857 -1.22451 H 1 RES   0.0000
8731 H 7.28748 9.77756 -3.47738 H 1 RES   0.0000
8732 H -5.76732 -6.52926 5.97464 H 1 RES   0.0000
8733 H 2.11345 -0.45671 -0.644805 H 1 RES   0.0000
8734 H 6.37367 -6.78768 -14.5287 H 1 RES   0.0000
8735 H -5.25541 7.93463 -7.60488 H 1 RES   0.0000
8736 H 2.56506 7.69664 -1.71518 H 1 RES   0.0000
8737 H 1.15616 -9.98986 14.1433 H 1 RES   0.0000
8738 H -11.4162 6.07421 -14.2268 H 1 RES   0.0000
8739 H 8.98462 6.10054 -12.8106 H 1 RES   0.0000
8740 H 0.474551 11.2074 10.7004 H 1 RES   0.0000
8741 H -11.1769 10.2299 -8.29139 H 1 RES   0.0000
8742 H 6.36542 11.5092 8.68146 H 1 RES   0.0000
8743 H 10.0493 2.1027 6.1291 H 1 RES   0.0000
8744 H 2.21404 12.9078 1.86699 H 1 RES   0.0000
8745 H -6.72624 -13.1903 11.516 H 1 RES   0.0000
8746 H 6.55597 10.0728 9.79741 H 1 RES   0.0000
8747 H -12.3184 7.78157 7.64916 H 1 RES   0.0000
8748 H 0.449493 -14.3756 1.47586 H 1 RES   0.0000
8749 H -4.94064 13.6772 -1.77244 H 1 RES   0.0000
8750 H 7.96343 2.58989 4.83883 H 1 RES   0.0000
8751 H 0.445056 12.425 11.4505 H 1 RES   0.0000
8752 H -6.66294 -3.87605 9.46219 H 1 RES   0.0000
8753 H 5.70397 6.37862 -3.53758 H 1 RES   0.0000
8754 H 8.12336 2.06557 6.14016 H 1 RES   0.0000
8755 H -13.684 5.9865 -12.9531 H 1 RES   0.0000
8756 H -6.60989 12.6363 -12.2612 H 1 RES   0.0000
8757 H 2.4707 10.399 -6.72248 H 1 RES   0.0000
8758 H -3.60268 5.17006 4.68264 H 1 RES   0.0000
8759 H -3.04692 -9.13411 -13.5598 H 1 RES   0.0000
8760 H -7.15998 9.75924 3.54813 H 1 RES   0.0000
8761 H 12.3899 2.17034 -6.50571 H 1 RES   0.0000
8762 H -4.90519 9.1664 -2.01736 H 1 RES   0.0000
8763 H 12.312 -6.41515 14.113 H 1 RES   0.0000
8764 H -4.38108 12.2651 -1.59718 H 1 RES   0.0000
8765 H 4.97394 -6.37149 -1.91205 H 1 RES   0.0000
8766 H 2.02488 -5.04636 1.48597 H 1 RES   0.0000
8767 H 11.4042 -14.4937 14.7687 H 1 RES   0.0000
8768 H -8.29548 -11.6396 -9.30217 H 1 RES   0.0000
8769 H -11.7199 3.27821 4.75335 H 1 RES   0.0000
8770 H 8.34899 1.768 -1.50615 H 1 RES   0.0000
8771 H -14.3764 -4.0332 -0.267162 H 1 RES   0.0000
8772 H -8.11189 5.56996 8.72914 H 1 RES   0.0000
8773 H -13.1505 -4.76244 -8.46891 H 1 RES   0.0000
8774 H -6.35086 -11.876 -9.6251 H 1 RES   0.0000
8775 H 8.20672 13.1353 -12.329 H 1 RES   0.0000
8776 H -12.6467 12.2801 -5.72587 H 1 RES   0.0000
8777 H -3.27925 9.37748 13.7149 H 1 RES   0.0000
8778 H 8.78353 -8.20724 11.6126 H 1 RES   0.0000
8779 H 12.5106 -4.78246 11.6261 H 1 RES   0.0000
8780 H -8.91261 -4.02705 -8.26287 H 1 RES   0.0000
8781 H -13.9386 -13.937 -0.436841 H 1 RES   0.0000
8782 H 4.68119 7.12954 -9.93365 H 1 RES   0.0000
8783 H -1.86141 7.71086 1.10785 H 1 RES   0.0000
8784 H 10.1556 10.3867 -10.8212 H 1 RES   0.0000
8785 H -13.4461 -8.44343 6.61212 H 1 RES   0.0000
8786 H -1.84204 13.3472 -13.3346 H 1 RES   0.0000
8787 H 7.83438 4.08633 11.4319 H 1 RES   0.0000
8788 H -9.16219 10.6645 -0.757554 H 1 RES   0.0000
8789 H -10.4503 10.689 -14.0143 H 1 RES   0.0000
8790 H 12.2057 11.3539 0.363703 H 1 RES   0.0000
8791 H -5.16 -7.02936 13.8679 H 1 RES   0.0000
8792 H 5.26174 4.23808 0.994277 H 1 RES   0.0000
8793 H 13.4376 -11.1522 -3.34119 H 1 RES   0.0000
8794 H 0.068596 -7.46178 -4.67698 H 1 RES   0.0000
8795 H 12.2356 0.214005 -7.58854 H 1 RES   0.0000
8796 H 12.0367 -8.3573 -9.16753 H 1 RES   0.0000
8797 H 4.35988 -4.30341 13.823 H 1 RES   0.0000
8798 H 12.788 7.98291 7.48592 H 1 RES   0.0000
8799 H 10.9562 14.0051 -7.77655 H 1 RES   0.0000
8800 H -1.02733 14.0758 7.75897 H 1 RES   0.0000
8801 H 7.65276 11.0781 14.4424 H 1 RES   0.0000
8802 H -1.06192 -7.65902 -4.71816 H 1 RES   0.0000
8803 H 8.95385 4.58707 -10.6841 H 1 RES   0.0000
8804 H 0.423855 13.8198 -8.72771 H 1 RES   0.0000
8805 H 5.17006 7.13105 -2.96655 H 1 RES   0.0000
8806 H -2.40423 -6.19162 -10.1181 H 1 RES   0.0000
8807 H 12.9658 -1.67328 -13.6977 H 1 RES   0.0000
8808 H -8.85626 1.02267 -6.3761 H 1 RES   0.0000
8809 H -6.48835 0.397119 -3.546 H 1 RES   0.0000
8810 H -11.7316 -8.82104 -2.84867 H 1 RES   0.0000
8811 H -14.3261 -6.39323 -10.9279 H 1 RES   0.0000
8812 H -3.14841 -9.44565 6.72759 H 1 RES   0.0000
8813 H -13.5075 10.7826 -7.49844 H 1 RES   0.0000
8814 H 12.7792 1.5482 10.3295 H 1 RES   0.0000
8815 H -10.3661 7.59441 -12.5833 H 1 RES   0.0000
8816 H 0.0576504 -6.40559 -6.11385 H 1 RES   0.0000
8817 H -2.15287 -14.6355 1.99778 H 1 RES   0.0000
8818 H -0.3866 -4.58284 -6.32582 H 1 RES   0.0000
8819 H 7.44173 -8.84754 -5.71631 H 1 RES   0.0000
8820 H 13.8198 12.6212 -3.1235 H 1 RES   0.0000
8821 H -10.4896 -14.3507 1.62213 H 1 RES   0.0000
8822 H -5.24844 6.67904 0.267968 H 1 RES   0.0000
8823 H -3.39114 11.7081 5.96377 H 1 RES   0.0000
8824 H -13.0475 -10.8892 8.66406 H 1 RES   0.0000
8825 H 0.125037 14.7584 -9.26599 H 1 RES   0.0000
8826 H -12.4956 14.4844 -5.18525 H 1 RES   0.0000
8827 H -10.4016 -3.94031 3.58803 H 1 RES   0.0000
8828 H 8.76665 2.40348 -7.29363 H 1 RES   0.0000
8829 H 8.30633 5.05842 7.53901 H 1 RES   0.0000
8830 H -4.47168 -6.42351 -0.257877 H 1 RES   0.0000
8831 H 14.6827 11.1295 -4.82716 H 1 RES   0.0000
8832 H 5.06127 -11.1018 -7.08312 H 1 RES   0.0000
8833 H -14.4062 3.09952 -10.4284 H 1 RES   0.0000
8834 H -5.9988 6.25637 14.6242 H 1 RES   0.0000
8835 H 14.318 -1.14864 -13.7172 H 1 RES   0.0000
8836 H -1.28913 3.20705 1.5644 H 1 RES   0.0000
8837 H -3.57378 -6.43169 -8.09652 H 1 RES   0.0000
8838 H 5.2929 8.05248 10.6275 H 1 RES   0.0000
8839 H 4.96097 -12.5469 -13.3964 H 1 RES   0.0000
8840 H -3.54333 13.9478 1.33669 H 1 RES   0.0000
8841 H -2.15412 -2.29127 -2.38469 H 1 RES   0.0000
8842 H -1.69081 -3.73189 3.71707 H 1 RES   0.0000
8843 H -7.2442 4.79064 -3.92534 H 1 RES   0.0000
8844 H -10.8056 12.4757 13.1413 H 1 RES   0.0000
8845 H 8.48389 -13.5909 -8.93128 H 1 RES   0.0000
8846 H 4.62096 14.7927 -9.7617 H 1 RES   0.0000
8847 H -8.12459 -6.97208 -9.82345 H 1 RES   0.0000
8848 H 14.5701 11.5619 -13.6556 H 1 RES   0.0000
8849 H 3.094 -13.2257 -12.1014 H 1 RES   0.0000
8850 H -11.3785 -7.0769 -10.5808 H 1 RES   0.0000
8851 H 3.02967 11.1733 2.24166 H 1 RES   0.0000
8852 H -5.79993 -10.2677 14.386 H 1 RES   0.0000
8853 H -12.6092 -6.02397 -11.0569 H 1 RES   0.0000
8854 H -14.5827 -13.6013 -6.82613 H 1 RES   0.0000
8855 H 10.1033 -10.6152 -4.02115 H 1 RES   0.0000
8856 H -6.70614 2.42779 -13.5554 H 1 RES   0.0000
8857 H 1.28287 8.17937 5.93494 H 1 RES   0.0000
8858 H 6.83408 5.1092 9.73856 H 1 RES   0.0000
8859 H 9.54794 3.22992 -5.33866 H 1 RES   0.0000
8860 H 12.1989 -7.32966 2.88912 H 1 RES   0.0000
8861 H 10.0863 14.4891 10.4921 H 1 RES   0.0000
8862 H -4.84594 -0.0158015 3.63353 H 1 RES   0.0000
8863 H 11.2376 -6.79566 6.82167 H 1 RES   0.0000
8864 H -5.85802 -6.11071 10.1738 H 1 RES   0.0000
8865 H -0.935367 -14.5759 -14.5077 H 1 RES   0.0000
8866 H -0.502005 7.8988 14.265 H 1 RES   0.0000
8867 H -0.964531 0.491622 12.3494 H 1 RES   0.0000
8868 H -3.32684 -13.8333 14.4832 H 1 RES   0.0000
8869 H 10.6869 -8.49791 -6.84836 H 1 RES   0.0000
8870 H -8.99519 -13.7051 14.7253 H 1 RES   0.0000
8871 H -10.5837 -7.28923 5.6237 H 1 RES   0.0000
8872 H 2.17413 -9.50519 1.47088 H 1 RES   0.0000
8873 H -4.60297 2.31977 14.5054 H 1 RES   0.0000
8874 H 3.64652 -5.79991 12.6607 H 1 RES   0.0000
8875 H 11.7107 -9.06053 2.26429 H 1 RES   0.0000
8876 H 10.8554 5.25434 3.53738 H 1 RES   0.0000
8877 H -3.72981 2.60925 4.6875 H 1 RES   0.0000
8878 H -9.38346 -5.96377 -7.895 H 1 RES   0.0000
8879 H 7.49424 4.7712 -14.6333 H 1 RES   0.0000
8880 H 14.3823 14.6747 0.428991 H 1 RES   0.0000
8881 H 3.21749 -8.90953 -6.10305 H 1 RES   0.0000
8882 H -7.9777 0.583055 -0.0758912 H 1 RES   0.0000
8883 H 12.1753 -4.74785 2.14534 H 1 RES   0.0000
8884 H -14.6565 -5.74919 -5.74195 H 1 RES   0.0000
8885 H 3.75775 11.1275 12.79 H 1 RES   0.0000
8886 H 10.5275 0.605703 12.4228 H 1 RES   0.0000
8887 H -5.48517 14.6681 -2.45362 H 1 RES   0.0000
8888 H 4.07687 10.1538 8.10547 H 1 RES   0.0000
8889 H -3.12032 -2.83613 6.17076 H 1 RES   0.0000
8890 H -3.4348 0.73281 1.14716 H 1 RES   0.0000
8891 H -5.09178 -2.33225 -8.62701 H 1 RES   0.0000
8892 H -8.87315 -2.81536 5.62575 H 1 RES   0.0000
8893 H -12.9006 4.52919 -7.56985 H 1 RES   0.0000
8894 H 2.15325 -11.664 11.7072 H 1 RES   0.0000
8895 H -4.40757 6.15434 -9.1983 H 1 RES   0.0000
8896 H 10.5321 -4.47392 5.11959 H 1 RES   0.0000
8897 H -14.185 -8.42869 -10.5468 H 1 RES   0.0000
8898 H 7.03228 -7.50417 -5.27435 H 1 RES   0.0000
8899 H 5.53721 -11.2906 -11.0817 H 1 RES   0.0000
8900 H -0.498111 1.3381 9.40913 H 1 RES   0.0000
8901 H 0.551463 -10.9733 11.8942 H 1 RES   0.0000
8902 H -7.63874 -14.3776 -5.70765 H 1 RES   0.0000
8903 H -2.64935 8.5053 -12.7378 H 1 RES   0.0000
8904 H -7.09017 5.96452 14.7064 H 1 RES   0.0000
8905 H 11.0445 14.3762 0.512135 H 1 RES   0.0000
8906 H 6.25588 5.8526 14.5135 H 1 RES   0.0000
8907 H -12.5221 9.44013 -1.07278 H 1 RES   0.0000
8908 H -13.796 10.9856 -10.7165 H 1 RES   0.0000
8909 H -13.2306 -4.87254 1.08694 H 1 RES   0.0000
8910 H -2.4544 0.224958 0.884413 H 1 RES   0.0000
8911 H 0.214255 -11.6346 0.065085 H 1 RES   0.0000
8912 H -0.277413 -12.6872 11.3201 H 1 RES   0.0000
8913 H -10.328 -6.44565 8.10017 H 1 RES   0.0000
8914 H -2.66609 -3.30075 2.13813 H 1 RES   0.0000
8915 H -4.22875 9.77865 14.5093 H 1 RES   0.0000
8916 H -0.143323 -9.14501 10.1033 H 1 RES   0.0000
8917 H 6.47999 -5.11618 -3.78171 H 1 RES   0.0000
8918 H 6.45557 -8.02598 -2.19473 H 1 RES   0.0000
8919 H -6.57506 -2.13177 8.2586 H 1 RES   0.0000
8920 H 13.321 6.73066 -7.18167 H 1 RES   0.0000
8921 H 1.12029 -8.03349 -6.93188 H 1 RES   0.0000
8922 H -13.953 13.8173 -4.96623 H 1 RES   0.0000
8923 H 5.52464 -11.7236 -4.03261 H 1 RES   0.0000
8924 H 10.1605 5.71388 -0.307939 H 1 RES   0.0000
8925 H -5.13703 -6.1488 -14.253 H 1 RES   0.0000
8926 H -6.03919 14.7213 -3.75877 H 1 RES   0.0000
8927 H -8.64247 7.08488 6.30486 H 1 RES   0.0000
8928 H 8.33255 9.52537 10.5413 H 1 RES   0.0000
8929 H -2.80211 -0.25606 -10.6945 H 1 RES   0.0000
8930 H -5.10324 2.65644 13.7793 H 1 RES   0.0000
8931 H -4.80772 -1.17913 -11.8447 H 1 RES   0.0000
8932 H -3.11505 -0.866505 -5.58834 H 1 RES   0.0000
8933 H 1.61604 6.41364 6.38254 H 1 RES   0.0000
8934 H -0.0871319 10.2854 -14.3773 H 1 RES   0.0000
8935 H -12.3575 2.24235 4.81078 H 1 RES   0.0000
8936 H 13.7003 9.67965 12.6676 H 1 RES   0.0000
8937 H 2.70066 12.1955 -12.6657 H 1 RES   0.0000
8938 H 3.68463 7.09375 0.725673 H 1 RES   0.0000
8939 H -11.071 0.185606 13.2757 H 1 RES   0.0000
8940 H 1.22033 -3.6251 -3.48893 H 1 RES   0.0000
8941 H 9.79564 -14.4677 14.1499 H 1 RES   0.0000
8942 H 10.2634 -3.4112 -13.2927 H 1 RES   0.0000
8943 H 12.5516 13.2224 -14.144 H 1 RES   0.0000
8944 H -2.31399 4.5713 11.995 H 1 RES   0.0000
8945 H -11.153 1.22916 -3.17358 H 1 RES   0.0000
8946 H 12.81 5.25818 -0.484821 H 1 RES   0.0000
8947 H 3.22318 -0.181749 6.32733 H 1 RES   0.0000
8948 H -14.1529 -12.4385 1.22152 H 1 RES   0.0000
8949 H -4.55594 -13.1255 3.16757 H 1 RES   0.0000
8950 H -13.5001 2.42671 -10.3952 H 1 RES   0.0000
8951 H 6.76016 -2.89967 -6.84886 H 1 RES   0.0000
8952 H -8.19815 -9.74561 12.9996 H 1 RES   0.0000
8953 H -9.32059 -11.1418 -9.11706 H 1 RES   0.0000
8954 H -0.906837 3.01268 12.9724 H 1 RES   0.0000
8955 H -0.168089 -8.24516 7.02719 H 1 RES   0.0000
8956 H 9.73351 11.0681 -4.93536 H 1 RES   0.0000
8957 H 7.6124 -13.8027 -12.2883 H 1 RES   0.0000
8958 H -8.17583 6.69908 -12.0203 H 1 RES   0.0000
8959 H 8.77623 -10.7815 -11.0739 H 1 RES   0.0000
8960 H -5.53449 6.6598 -1.75639 H 1 RES   0.0000
8961 H -0.428313 3.56152 -1.31962 H 1 RES   0.0000
8962 H 9.98556 -2.43772 -13.0437 H 1 RES   0.0000
8963 H -12.3889 -6.30933 -9.55998 H 1 RES   0.0000
8964 H 0.497208 -8.21301 -8.75162 H 1 RES   0.0000
8965 H -10.3641 3.10615 8.34126 H 1 RES   0.0000
8966 H 2.94749 -10.3176 8.68915 H 1 RES   0.0000
8967 H 3.59709 -2.88869 -8.32377 H 1 RES   0.0000
8968 H -4.79047 -13.8141 -9.65098 H 1 RES   0.0000
8969 H 8.20933 -0.296146 4.20958 H 1 RES   0.0000
8970 H 12.9314 -10.9742 6.49604 H 1 RES   0.0000
8971 H 12.5695 9.13009 8.0334 H 1 RES   0.0000
8972 H 4.27605 -6.18529 -14.0163 H 1 RES   0.0000
8973 H 2.70547 5.3 -0.062248 H 1 RES   0.0000
8974 H -11.5967 -9.74555 0.853278 H 1 RES   0.0000
8975 H -12.1306 -8.07181 1.59251 H 1 RES   0.0000
8976 H -1.94946 1.00423 1.90167 H 1 RES   0.0000
8977 H 6.11617 -4.37792 -10.7765 H 1 RES   0.0000
8978 H 9.80152 -6.17223 -8.80388 H 1 RES   0.0000
8979 H -8.32581 3.52081 -1.29556 H 1 RES   0.0000
8980 H -1.09442 12.4859 5.70427 H 1 RES   0.0000
8981 H 12.5654 -12.303 -6.73279 H 1 RES   0.0000
8982 H 3.45995 -6.34787 14.0055 H 1 RES   0.0000
8983 H -6.8674 -2.40669 5.02924 H 1 RES   0.0000
8984 H 11.3343 6.86206 -8.94414 H 1 RES   0.0000
8985 H 7.85282 7.52919 0.299881 H 1 RES   0.0000
8986 H -5.35906 -14.5197 -12.6172 H 1 RES   0.0000
8987 H -0.896638 -13.9393 2.90567 H 1 RES   0.0000
8988 H 6.71048 -13.9369 13.6247 H 1 RES   0.0000
8989 H -13.6296 -12.4806 -7.86359 H 1 RES   0.0000
8990 H 5.39487 13.8897 10.0231 H 1 RES   0.0000
8991 H -1.29376 6.90724 11.3394 H 1 RES   0.0000
8992 H 9.8367 7.6151 8.55122 H 1 RES   0.0000
8993 H -8.91241 -9.13996 -2.14114 H 1 RES   0.0000
8994 H -4.75683 -1.9904 -3.4161 H 1 RES   0.0000
8995 H 5.98003 0.691764 13.9148 H 1 RES   0.0000
8996 H 0.484194 -6.59071 -4.1911 H 1 RES   0.0000
8997 H 13.4713 14.8352 13.8479 H 1 RES   0.0000
8998 H -3.38407 -14.2411 3.28197 H 1 RES   0.0000
8999 H 0.861708 -11.2622 -3.27692 H 1 RES   0.0000
9000 H -0.342349 -11.3638 6.49552 H 1 RES   0.0000
9001 H -0.850175 1.39099 -12.1866 H 1 RES   0.0000
9002 H -7.50162 -6.89334 7.5121 H 1 RES   0.0000
9003 H -13.3665 7.60524 -3.00929 H 1 RES   0.0000
9004 H 10.8479 -7.65536 12.5464 H 1 RES   0.0000
9005 H 6.74845 11.3659 2.3275 H 1 RES   0.0000
9006 H -7.92049 1.82608 3.8979 H 1 RES   0.0000
9007 H 10.8883 0.871267 -9.49412 H 1 RES   0.0000
9008 H 10.6241 9.84753 13.8275 H 1 RES   0.0000
9009 H -8.71187 -13.9132 -7.65948 H 1 RES   0.0000
9010 H -9.10563 -10.3701 4.63749 H 1 RES   0.0000
9011 H 14.7356 5.18058 4.2316 H 1 RES   0.0000
9012 H 6.26928 -4.31651 -2.76364 H 1 RES   0.0000
9013 H -5.0122 -3.90946 -7.65804 H 1 RES   0.0000
9014 H 2.34685 11.8698 7.78003 H 1 RES   0.0000
9015 H 11.6777 -5.67482 -8.88439 H 1 RES   0.0000
9016 H 9.49197 -3.68063 -12.177 H 1 RES   0.0000
9017 H -4.61679 -13.6646 -6.56931 H 1 RES   0.0000
9018 H 1.0389 14.1711 -11.7476 H 1 RES   0.0000
9019 H -0.846657 -13.7302 -11.0465 H 1 RES   0.0000
9020 H 13.2888 -8.07764 -6.50387 H 1 RES   0.0000
9021 H -12.4198 12.7203 -10.3269 H 1 RES   0.0000
9022 H -7.39218 -0.748795 -1.92216 H 1 RES   0.0000
9023 H -5.45392 11.5464 6.35894 H 1 RES   0.0000
9024 H 14.1722 -0.980574 7.3288 H 1 RES   0.0000
9025 H 14.1794 -13.9488 -7.48357 H 1 RES   0.0000
9026 H -1.16506 -4.26604 -0.266043 H 1 RES   0.0000
9027 H -6.40297 -3.97996 -4.39261 H 1 RES   0.0000
9028 H -11.3123 -10.5411 7.98843 H 1 RES   0.0000
9029 H 7.43719 10.755 10.2675 H 1 RES   0.0000
9030 H -13.133 -9.27329 7.14449 H 1 RES   0.0000
9031 H -8.29023 5.94468 -10.3476 H 1 RES   0.0000
9032 H -0.141059 2.79563 11.0809 H 1 RES   0.0000
9033 H -11.3739 3.71204 7.27697 H 1 RES   0.0000
9034 H -6.09384 -13.8054 -8.29642 H 1 RES   0.0000
9035 H -5.0409 9.83541 3.9481 H 1 RES   0.0000
9036 H 0.200989 7.41138 -12.4768 H 1 RES   0.0000
9037 H 0.227599 -11.5247 14.3979 H 1 RES   0.0000
9038 H -11.127 4.29687 -12.9993 H 1 RES   0.0000
9039 H -4.50488 -9.64594 12.0986 H 1 RES   0.0000
9040 H 9.86588 -4.10719 -0.559081 H 1 RES   0.0000
9041 H 9.51426 -4.11794 -13.3883 H 1 RES   0.0000
9042 H -14.7767 7.85257 -11.1871 H 1 RES   0.0000
9043 H -3.304 5.63419 9.71008 H 1 RES   0.0000
9044 H -11.8516 -9.49926 9.55348 H 1 RES   0.0000
9045 H 4.76299 -2.86291 14.192 H 1 RES   0.0000
9046 H 14.659 -6.87993 -12.2821 H 1 RES   0.0000
9047 H 4.09151 2.69851 9.85472 H 1 RES   0.0000
9048 H 14.009 7.41431 5.97676 H 1 RES   0.0000
9049 H 0.941353 1.73208 -13.811 H 1 RES   0.0000
9050 H 7.22564 14.4637 7.47158 H 1 RES   0.0000
9051 H -11.0567 -11.4123 3.13192 H 1 RES   0.0000
9052 H -4.22856 -13.0406 -4.56119 H 1 RES   0.0000
9053 H -10.1423 10.4747 4.38194 H 1 RES   0.0000
9054 H -2.26171 8.3405 -3.14954 H 1 RES   0.0000
9055 H -1.3694 -4.62571 2.7735 H 1 RES   0.0000
9056 H -14.7381 -13.7327 -12.0982 H 1 RES   0.0000
9057 H -13.6143 6.4529 -10.6485 H 1 RES   0.0000
9058 H -12.6868 -9.17549 4.17095 H 1 RES   0.0000
9059 H 7.2548 -14.7861 -13.9448 H 1 RES   0.0000
9060 H -1.16357 5.91896 -4.99905 H 1 RES   0.0000
9061 H 2.66062 -2.84409 1.33471 H 1 RES   0.0000
9062 H -7.23595 9.3619 11.63 H 1 RES   0.0000
9063 H -2.38833 -4.92157 -13.7877 H 1 RES   0.0000
9064 H 10.3803 -8.65386 8.83016 H 1 RES   0.0000
9065 H 3.88634 6.16012 11.0884 H 1 RES   0.0000
9066 H -3.49168 13.331 -11.0996 H 1 RES   0.0000
9067 H 7.22044 1.35713 -2.44362 H 1 RES   0.0000
9068 H -4.05182 -6.90464 -12.5857 H 1 RES   0.0000
9069 H 3.55461 12.1558 0.541459 H 1 RES   0.0000
9070 H -5.19675 12.874 14.4087 H 1 RES   0.0000
9071 H -6.33707 -1.66882 -12.9382 H 1 RES   0.0000
9072 H 5.49237 10.3597 8.18474 H 1 RES   0.0000
9073 H -12.076 -10.0482 7.3826 H 1 RES   0.0000
9074 H 1.61256 13.4333 2.95334 H 1 RES   0.0000
9075 H 3.54101 -3.23024 4.4978 H 1 RES   0.0000
9076 H -4.80366 2.08707 -1.03957 H 1 RES   0.0000
9077 H -6.65273 -0.870326 -6.84199 H 1 RES   0.0000
9078 H -7.87744 0.642423 3.68224 H 1 RES   0.0000
9079 H -0.838075 -0.931313 7.17791 H 1 RES   0.0000
9080 H -8.29593 8.60664 0.587681 H 1 RES   0.0000
9081 H 3.80107 9.59108 3.78837 H 1 RES   0.0000
9082 H -1.29954 9.02545 8.58203 H 1 RES   0.0000
9083 H 1.32963 3.67468 9.46854 H 1 RES   0.0000
9084 H -1.64764 5.36758 13.0153 H 1 RES   0.0000
9085 H 5.40887 9.07927 -11.9357 H 1 RES   0.0000
9086 H 1.68928 6.643 1.06074 H 1 RES   0.0000
9087 H -3.04709 0.0414128 -4.63727 H 1 RES   0.0000
9088 H 0.667729 -10.0445 7.26443 H 1 RES   0.0000
9089 H 10.4991 8.29186 -1.80155 H 1 RES   0.0000
9090 H -5.19177 -1.20744 -7.29041 H 1 RES   0.0000
9091 H 1.22882 11.4516 7.36084 H 1 RES   0.0000
9092 H 1.28766 2.4904 14.3418 H 1 RES   0.0000
9093 H -10.756 5.1994 9.53438 H 1 RES   0.0000
9094 H 10.2277 -11.3777 -12.5539 H 1 RES   0.0000
9095 H 14.6552 9.78662 -4.22597 H 1 RES   0.0000
9096 H 8.63591 6.89812 8.18891 H 1 RES   0.0000
9097 H -3.3109 0.730334 10.965 H 1 RES   0.0000
9098 H 6.42206 -4.86941 -4.81131 H 1 RES   0.0000
9099 H -3.12088 4.82255 2.05751 H 1 RES   0.0000
9100 H -4.25065 -0.88488 -6.25381 H 1 RES   0.0000
9101 H -11.2107 -13.2528 -3.26539 H 1 RES   0.0000
9102 H 8.32223 -5.65005 -8.09275 H 1 RES   0.0000
9103 H 6.01096 -12.1773 -5.2334 H 1 RES   0.0000
9104 H -6.24495 5.23391 -2.23645 H 1 RES   0.0000
9105 H 2.69192 -12.1897 -11.992 H 1 RES   0.0000
9106 H 2.88253 -9.56237 -10.1807 H 1 RES   0.0000
9107 H -0.540802 -0.962487 -4.6841 H 1 RES   0.0000
9108 H -7.62049 -6.21102 -12.5575 H 1 RES   0.0000
9109 H -1.59259 -8.91825 -13.854 H 1 RES   0.0000
9110 H 9.54684 -7.39966 0.689127 H 1 RES   0.0000
9111 H 11.5863 0.887395 -8.31078 H 1 RES   0.0000
9112 H -5.67044 -9.87552 11.1271 H 1 RES   0.0000
9113 H 9.1737 -3.39084 -11.1214 H 1 RES   0.0000
9114 H -7.97754 -5.25083 -8.50485 H 1 RES   0.0000
9115 H 6.73061 -9.02662 -8.7689 H 1 RES   0.0000
9116 H -6.1002 11.4133 -5.01115 H 1 RES   0.0000
9117 H -14.7072 -8.65712 -4.1979 H 1 RES   0.0000
9118 H -13.4073 2.33228 7.50791 H 1 RES   0.0000
9119 H 8.53105 13.13 3.85001 H 1 RES   0.0000
9120 H 13.765 7.28768 14.5231 H 1 RES   0.0000
9121 H -14.3057 7.11932 5.40758 H 1 RES   0.0000
9122 H 11.8173 5.63635 -8.0918 H 1 RES   0.0000
9123 H 14.635 -11.5417 7.94109 H 1 RES   0.0000
9124 H -2.38896 4.28963 -2.42406 H 1 RES   0.0000
9125 H 6.53069 9.21008 14.2582 H 1 RES   0.0000
9126 H -5.25326 -11.6884 -1.50142 H 1 RES   0.0000
9127 H 9.74145 -11.9682 2.77222 H 1 RES   0.0000
9128 H 5.41204 -0.457833 13.9828 H 1 RES   0.0000
9129 H -12.8102 -11.5798 10.3056 H 1 RES   0.0000
9130 H 0.0878799 3.86596 11.9068 H 1 RES   0.0000
9131 H -10.8608 1.26586 1.23472 H 1 RES   0.0000
9132 H -9.92822 -3.50297 -9.9504 H 1 RES   0.0000
9133 H -14.516 -14.8016 -10.3756 H 1 RES   0.0000
9134 H 4.73697 -3.21606 -5.60792 H 1 RES   0.0000
9135 H -12.5668 -7.71888 5.66132 H 1 RES   0.0000
9136 H -4.58516 -2.51196 -1.17194 H 1 RES   0.0000
9137 H 5.31707 11.2729 -5.08812 H 1 RES   0.0000
9138 H -7.77145 -1.10025 -9.68484 H 1 RES   0.0000
9139 H -5.30606 2.73712 -3.49309 H 1 RES   0.0000
9140 H -9.47731 4.65358 2.32385 H 1 RES   0.0000
9141 H -5.55575 14.3374 9.45503 H 1 RES   0.0000
9142 H -0.855123 12.7916 13.4589 H 1 RES   0.0000
9143 H -3.67139 -12.0318 -10.8215 H 1 RES   0.0000
9144 H 8.80877 -0.00667197 10.1894 H 1 RES   0.0000
9145 H 6.78897 12.2939 10.3918 H 1 RES   0.0000
9146 H 4.0732 1.21425 4.70538 H 1 RES   0.0000
9147 H -1.0909 -11.8239 -10.1116 H 1 RES   0.0000
9148 H 4.61985 -6.47745 -9.61748 H 1 RES   0.0000
9149 H -12.3626 -5.40763 -9.91571 H 1 RES   0.0000
9150 H 7.88504 6.26839 -2.59259 H 1 RES   0.0000
9151 H 1.56748 -5.49981 13.6572 H 1 RES   0.0000
9152 H 13.8861 3.78617 0.93716 H 1 RES   0.0000
9153 H -13.084 -11.1516 -11.8343 H 1 RES   0.0000
9154 H -13.5795 4.49706 4.91088 H 1 RES   0.0000
9155 H -4.533 3.42641 -11.5717 H 1 RES   0.0000
9156 H -11.5111 6.65578 -11.0216 H 1 RES   0.0000
9157 H -11.4728 8.59723 5.19659 H 1 RES   0.0000
9158 H -6.74146 -11.5697 -12.9989 H 1 RES   0.0000
9159 H -10.2661 -3.7191 -5.52665 H 1 RES   0.0000
9160 H 0.844324 -8.45233 -4.96894 H 1 RES   0.0000
9161 H 2.84134 -2.16985 -5.35023 H 1 RES   0.0000
9162 H -6.36077 -2.50212 7.20156 H 1 RES   0.0000
9163 H 6.16977 6.5571 -1.59958 H 1 RES   0.0000
9164 H 11.7844 6.69292 -6.81525 H 1 RES   0.0000
9165 H 2.6974 7.20183 -10.8186 H 1 RES   0.0000
9166 H -7.60326 12.8192 14.3315 H 1 RES   0.0000
9167 H -2.46849 9.23094 3.5004 H 1 RES   0.0000
9168 H 11.0125 -1.89718 13.4479 H 1 RES   0.0000
9169 H -13.6452 -6.64711 -9.74611 H 1 RES   0.0000
9170 H 2.53511 2.42564 -2.48667 H 1 RES   0.0000
9171 H 11.9333 3.76631 6.0646 H 1 RES   0.0000
9172 H -7.99697 -10.4659 -12.7165 H 1 RES   0.0000
9173 H -12.0346 14.7744 11.8854 H 1 RES   0.0000
9174 H 0.762874 -3.15566 -2.57159 H 1 RES   0.0000
9175 H -13.2354 0.308194 11.929 H 1 RES   0.0000
9176 H -9.79342 -1.95396 -5.5485 H 1 RES   0.0000
9177 H 11.4246 -4.81291 13.6756 H 1 RES   0.0000
9178 H 4.51712 -8.43419 5.12039 H 1 RES   0.0000
9179 H 12.4554 0.555279 -5.18714 H 1 RES   0.0000
9180 H 8.17065 0.0612823 -11.8542 H 1 RES   0.0000
9181 H 14.1018 -4.5837 -12.6946 H 1 RES   0.0000
9182 H -2.06894 -5.36133 -5.15836 H 1 RES   0.0000
9183 H -2.46591 7.4445 -14.1179 H 1 RES   0.0000
9184 H -0.644346 2.37572 -0.333259 H 1 RES   0.0000
9185 H 10.0619 0.321512 -7.67446 H 1 RES   0.0000
9186 H 5.82196 -13.9861 2.11167 H 1 RES   0.0000
9187 H -9.83785 12.525 4.70475 H 1 RES   0.0000
9188 H 1.96566 -12.4137 -3.39552 H 1 RES   0.0000
9189 H 11.6614 -7.84324 0.749639 H 1 RES   0.0000
9190 H -8.71534 -5.42858 14.3342 H 1 RES   0.0000
9191 H -2.25434 0.857513 6.65827 H 1 RES   0.0000
9192 H 0.162393 10.9323 -5.0321 H 1 RES   0.0000
9193 H -10.0699 -7.59441 -7.38088 H 1 RES   0.0000
9194 H -6.22382 13.7372 -12.0367 H 1 RES   0.0000
9195 H -1.93084 -3.66759 -6.86041 H 1 RES   0.0000
9196 H 10.4165 -6.04282 -3.59493 H 1 RES   0.0000
9197 H 8.89276 2.34825 -12.0746 H 1 RES   0.0000
9198 H -13.7152 2.09163 4.29094 H 1 RES   0.0000
9199 H 6.3818 -12.5556 -7.95903 H 1 RES   0.0000
9200 H 3.47171 13.4134 -6.42707 H 1 RES   0.0000
9201 H -3.64719 -5.13396 12.5612 H 1 RES   0.0000
9202 H -0.858603 13.3515 14.4396 H 1 RES   0.0000
9203 H 2.63854 8.10074 -4.33535 H 1 RES   0.0000
9204 H -10.3314 9.96713 -13.0367 H 1 RES   0.0000
9205 H 11.1111 8.76695 0.885374 H 1 RES   0.0000
9206 H 0.453861 -10.0164 -13.6022 H 1 RES   0.0000
9207 H -8.32123 -4.9756 9.32746 H 1 RES   0.0000
9208 H 14.0791 -0.0382646 -6.9125 H 1 RES   0.0000
9209 H 5.04381 3.26891 -12.7669 H 1 RES   0.0000
9210 H -12.6529 -3.13559 5.08655 H 1 RES   0.0000
9211 H -5.79343 0.268957 11.3072 H 1 RES   0.0000
9212 H 2.4137 -10.0419 -6.61931 H 1 RES   0.0000
9213 H -0.839264 10.6886 -7.58499 H 1 RES   0.0000
9214 H -8.54163 10.5453 0.749295 H 1 RES   0.0000
9215 H -2.3415 -14.6184 -1.37512 H 1 RES   0.0000
9216 H -13.2028 8.00666 10.2062 H 1 RES   0.0000
9217 H -7.30362 5.88857 3.83043 H 1 RES   0.0000
9218 H -11.1777 -3.61296 10.7622 H 1 RES   0.0000
9219 H 3.5616 -0.698352 9.70207 H 1 RES   0.0000
9220 H -6.63215 13.3971 5.86569 H 1 RES   0.0000
9221 H -7.2749 -10.8657 -13.6177 H 1 RES   0.0000
9222 H -7.69404 3.09154 -8.62327 H 1 RES   0.0000
9223 H 3.44529 -0.622382 -0.150482 H 1 RES   0.0000
9224 H 0.910597 0.324058 -10.6179 H 1 RES   0.0000
9225 H -5.96714 -14.0372 11.4923 H 1 RES   0.0000
9226 H -7.05457 -0.562252 3.32962 H 1 RES   0.0000
9227 H 8.06511 5.84659 11.3068 H 1 RES   0.0000
9228 H 6.80004 4.06314 9.61306 H 1 RES   0.0000
9229 H 0.660132 6.04338 8.0072 H 1 RES   0.0000
9230 H 14.5274 -13.7578 10.2641 H 1 RES   0.0000
9231 H 6.13552 -2.60581 5.85659 H 1 RES   0.0000
9232 H 10.8496 1.04511 -4.62243 H 1 RES   0.0000
9233 H 11.6203 -11.9553 -5.06866 H 1 RES   0.0000
9234 H 10.5373 2.38469 10.9223 H 1 RES   0.0000
9235 H -0.437547 11.0245 -10.2445 H 1 RES   0.0000
9236 H -2.78716 -4.4174 9.21882 H 1 RES   0.0000
9237 H -2.69962 9.01393 2.24718 H 1 RES   0.0000
9238 H 10.9918 11.8083 -7.98566 H 1 RES   0.0000
9239 H -12.9246 11.5443 -13.4106 H 1 RES   0.0000
9240 H 1.81993 8.84334 1.03637 H 1 RES   0.0000
9241 H -13.5152 -7.05244 9.3 H 1 RES   0.0000
9242 H -12.3097 9.33486 -7.86831 H 1 RES   0.0000
9243 H -4.23432 8.68416 13.1466 H 1 RES   0.0000
9244 H 3.13797 -6.43633 -8.58764 H 1 RES   0.0000
9245 H 6.35307 -9.15903 -5.99383 H 1 RES   0.0000
9246 H -6.54804 -6.85506 2.6243 H 1 RES   0.0000
9247 H -0.394682 7.53196 -14.1961 H 1 RES   0.0000
9248 H -14.6819 0.382775 -4.4528 H 1 RES   0.0000
9249 H -5.27936 -4.42173 12.4065 H 1 RES   0.0000
9250 H -7.88653 -11.6106 6.33503 H 1 RES   0.0000
9251 H 8.9201 5.33491 -1.19782 H 1 RES   0.0000
9252 H -11.9619 3.02194 9.94217 H 1 RES   0.0000
9253 H -7.41365 -13.3579 -4.9677 H 1 RES   0.0000
9254 H 12.3662 13.2724 -5.69973 H 1 RES   0.0000
9255 H 10.6491 14.297 -0.846483 H 1 RES   0.0000
9256 H -9.92454 12.7307 0.407231 H 1 RES   0.0000
9257 H -4.67792 -13.571 7.75842 H 1 RES   0.0000
9258 H 4.78535 2.19661 -2.30628 H 1 RES   0.0000
9259 H 9.66504 -14.4605 2.32108 H 1 RES   0.0000
9260 H 4.57416 11.0846 6.04145 H 1 RES   0.0000
9261 H -1.81267 10.0346 -5.58138 H 1 RES   0.0000
9262 H -0.572494 -6.98809 -0.0687203 H 1 RES   0.0000
9263 H -5.72595 -9.04612 11.7575 H 1 RES   0.0000
9264 H -14.3292 2.34762 -12.026 H 1 RES   0.0000
9265 H -3.48078 0.730542 -6.88418 H 1 RES   0.0000
9266 H -3.50955 5.44448 -5.61581 H 1 RES   0.0000
9267 H -5.37516 -7.03004 -6.32422 H 1 RES   0.0000
9268 H -14.3637 11.5879 11.435 H 1 RES   0.0000
9269 H -12.6741 10.9824 -0.566923 H 1 RES   0.0000
9270 H -14.0983 -9.68811 5.16159 H 1 RES   0.0000
9271 H -6.59849 12.2066 5.5848 H 1 RES   0.0000
9272 H -7.73841 4.09935 6.32553 H 1 RES   0.0000
9273 H -0.273297 0.0488187 -4.80486 H 1 RES   0.0000
9274 H 12.6542 -14.3526 -9.59299 H 1 RES   0.0000
9275 H 11.0922 -7.94511 -5.06781 H 1 RES   0.0000
9276 H -1.52905 9.66405 2.40073 H 1 RES   0.0000
9277 H 10.7715 -3.68973 -1.05831 H 1 RES   0.0000
9278 H -4.2905 -2.60347 -7.25258 H 1 RES   0.0000
9279 H 13.9421 -4.86751 8.17029 H 1 RES   0.0000
9280 H -12.6201 11.8469 13.3854 H 1 RES   0.0000
9281 H -4.09098 9.39379 11.1982 H 1 RES   0.0000
9282 H 6.40708 0.608132 7.05206 H 1 RES   0.0000
9283 H 4.55199 -4.52526 -2.5109 H 1 RES   0.0000
9284 H 5.05507 10.3102 5.26554 H 1 RES   0.0000
9285 H 2.48841 10.1204 -1.51059 H 1 RES   0.0000
9286 H 0.44897 14.8344 -4.56725 H 1 RES   0.0000
9287 H 12 -1.94483 7.21484 H 1 RES   0.0000
9288 H -8.61559 -9.55032 5.33778 H 1 RES   0.0000
9289 H -11.955 -5.25421 14.7293 H 1 RES   0.0000
9290 H 12.7039 -13.8858 -0.470738 H 1 RES   0.0000
9291 H -5.47827 8.41958 -10.8796 H 1 RES   0.0000
9292 H 2.91325 -8.07501 2.16324 H 1 RES   0.0000
9293 H 14.2904 0.150388 12.4859 H 1 RES   0.0000
9294 H -8.06938 4.50464 -6.0952 H 1 RES   0.0000
9295 H 5.36964 -12.8664 -7.67937 H 1 RES   0.0000
9296 H -2.26857 -1.38213 4.13572 H 1 RES   0.0000
9297 H 14.2099 1.81581 -12.9616 H 1 RES   0.0000
9298 H 2.5666 10.4269 1.25598 H 1 RES   0.0000
9299 H 5.66505 -9.73676 -3.39372 H 1 RES   0.0000
9300 H -1.70646 -6.30999 -4.04971 H 1 RES   0.0000
9301 H -3.43147 -8.34243 -6.94822 H 1 RES   0.0000
9302 H 12.0587 5.92333 -9.4384 H 1 RES   0.0000
9303 H -1.22556 -13.227 12.8422 H 1 RES   0.0000
9304 H -2.92517 -2.60105 5.23299 H 1 RES   0.0000
9305 H 6.05916 1.2888 -10.9018 H 1 RES   0.0000
9306 H -13.391 13.5666 -12.8016 H 1 RES   0.0000
9307 H -5.21413 -0.704807 13.8346 H 1 RES   0.0000
9308 H -13.3863 2.70345 -4.69584 H 1 RES   0.0000
9309 H 6.80852 -4.26314 -1.73313 H 1 RES   0.0000
9310 H -1.80674 7.02861 6.16023 H 1 RES   0.0000
9311 H -10.373 7.78638 -7.08119 H 1 RES   0.0000
9312 H -9.4275 -7.73735 2.15187 H 1 RES   0.0000
9313 H -14.4932 6.67966 -8.25312 H 1 RES   0.0000
9314 H -6.36224 -3.05941 10.1061 H 1 RES   0.0000
9315 H 11.6048 4.58619 7.79178 H 1 RES   0.0000
9316 H 14.3432 -7.80695 -6.97431 H 1 RES   0.0000
9317 H 11.9786 -10.7946 9.14288 H 1 RES   0.0000
9318 H -10.0571 -2.66663 9.1116 H 1 RES   0.0000
9319 H -7.67374 10.2714 1.63431 H 1 RES   0.0000
9320 H 4.57626 -2.51935 -0.548276 H 1 RES   0.0000
9321 H -5.98252 7.26582 1.23398 H 1 RES   0.0000
9322 H -10.524 11.188 9.26951 H 1 RES   0.0000
9323 H -6.65202 -12.7708 -12.8488 H 1 RES   0.0000
9324 H 8.88243 0.441368 -12.6769 H 1 RES   0.0000
9325 H -13.5412 1.69824 -12.7836 H 1 RES   0.0000
9326 H -2.37042 14.3924 1.14069 H 1 RES   0.0000
9327 H -8.18964 13.6644 6.9184 H 1 RES   0.0000
9328 H 2.52258 2.86183 -3.43702 H 1 RES   0.0000
9329 H -8.58437 8.85748 13.0178 H 1 RES   0.0000
9330 H 2.04929 3.5461 -1.16314 H 1 RES   0.0000
9331 H 10.4093 -10.7166 -9.59702 H 1 RES   0.0000
9332 H -6.21037 9.58678 -7.92742 H 1 RES   0.0000
9333 H -4.8396 -13.611 -13.8106 H 1 RES   0.0000
9334 H -2.58572 11.4471 -10.3628 H 1 RES   0.0000
9335 H -10.6413 12.9121 10.6791 H 1 RES   0.0000
9336 H -2.13384 10.2987 3.95409 H 1 RES   0.0000
9337 H -12.7654 2.42114 -9.13074 H 1 RES   0.0000
9338 H -4.15243 4.66848 12.5383 H 1 RES   0.0000
9339 H 1.30756 10.1401 2.75683 H 1 RES   0.0000
9340 H 3.44072 3.36382 -1.12459 H 1 RES   0.0000
9341 H -2.00362 -11.2796 -6.95793 H 1 RES   0.0000
9342 H 4.9346 -13.0329 -14.4105 H 1 RES   0.0000
9343 H 2.42395 -6.0098 -1.37326 H 1 RES   0.0000
9344 H 2.36902 -13.1552 -0.719532 H 1 RES   0.0000
9345 H 0.0276716 -9.45305 7.8987 H 1 RES   0.0000
9346 H -2.29743 8.35599 6.38972 H 1 RES   0.0000
9347 H -7.48945 9.44642 13.2049 H 1 RES   0.0000
9348 H 3.20569 -10.3463 -4.31114 H 1 RES   0.0000
9349 H -0.470028 12.157 -6.06252 H 1 RES   0.0000
9350 H 4.14391 11.4447 0.0736848 H 1 RES   0.0000
9351 H 1.62134 -0.330947 4.39809 H 1 RES   0.0000
9352 H -10.4702 -9.64128 11.8759 H 1 RES   0.0000
9353 H 6.21741 5.77925 -12.8793 H 1 RES   0.0000
9354 H 3.57732 -6.64462 -6.52345 H 1 RES   0.0000
9355 H 14.6273 2.67157 -1.92881 H 1 RES   0.0000
9356 H -7.48409 12.7036 1.75756 H 1 RES   0.0000
9357 H -6.42179 9.99778 -14.7064 H 1 RES   0.0000
9358 H -3.6707 12.2569 8.34938 H 1 RES   0.0000
9359 H 8.24995 -7.97666 -5.22353 H 1 RES   0.0000
9360 H -0.378991 14.2169 -3.78709 H 1 RES   0.0000
9361 H 11.7972 -9.00978 3.28324 H 1 RES   0.0000
9362 H -4.90677 -6.01016 6.46868 H 1 RES   0.0000
9363 H -4.76936 -9.68623 -6.45535 H 1 RES   0.0000
9364 H 12.9853 -1.6399 10.5784 H 1 RES   0.0000
9365 H -9.84937 -10.7066 11.8115 H 1 RES   0.0000
9366 H 2.33947 -4.40434 0.336634 H 1 RES   0.0000
9367 H -2.73796 5.57317 -9.08098 H 1 RES   0.0000
9368 H -1.22196 -3.65208 11.5487 H 1 RES   0.0000
9369 H -10.8562 -5.34188 14.3213 H 1 RES   0.0000
9370 H -0.880932 4.96989 12.1557 H 1 RES   0.0000
9371 H 0.322692 14.6098 -13.0075 H 1 RES   0.0000
9372 H -11.9943 -4.64942 -11.1374 H 1 RES   0.0000
9373 H -6.59752 -4.00494 -12.1199 H 1 RES   0.0000
9374 H 10.5034 -14.174 -10.495 H 1 RES   0.0000
9375 H 7.72012 -3.39826 6.20892 H 1 RES   0.0000
9376 H 13.5432 9.75488 7.72324 H 1 RES   0.0000
9377 H -0.252257 0.268495 8.5657 H 1 RES   0.0000
9378 H -1.71777 5.5466 6.80773 H 1 RES   0.0000
9379 H 14.5689 1.01067 -0.0846888 H 1 RES   0.0000
9380 H 2.93152 0.873565 -8.2642 H 1 RES   0.0000
9381 H -6.38029 -2.30929 11.8624 H 1 RES   0.0000
9382 H 11.867 0.82058 -10.6014 H 1 RES   0.0000
9383 H -3.04254 -2.8222 0.0286998 H 1 RES   0.0000
9384 H 11.7744 9.84012 -6.67943 H 1 RES   0.0000
9385 H 12.2191 -9.81298 -13.292 H 1 RES   0.0000
9386 H 12.9646 -10.4707 1.27011 H 1 RES   0.0000
9387 H 2.48783 10.6289 14.3502 H 1 RES   0.0000
9388 H -0.502266 -6.09209 -2.4942 H 1 RES   0.0000
9389 H -7.23638 10.9155 -2.86522 H 1 RES   0.0000
9390 H -11.6926 -10.372 3.83966 H 1 RES   0.0000
9391 H 6.29872 13.8324 6.42689 H 1 RES   0.0000
9392 H -0.620311 -6.83146 -9.02158 H 1 RES   0.0000
9393 H -14.1033 7.92489 4.38174 H 1 RES   0.0000
9394 H 9.56369 9.63801 8.37695 H 1 RES   0.0000
9395 H -7.60161 13.0521 2.74526 H 1 RES   0.0000
9396 H -4.28198 -5.24986 6.15153 H 1 RES   0.0000
9397 H -9.52392 -6.69842 9.42795 H 1 RES   0.0000
9398 H 12.58 1.00248 -1.52454 H 1 RES   0.0000
9399 H -11.0072 9.50397 3.84298 H 1 RES   0.0000
9400 H 6.21534 -3.39163 -9.09406 H 1 RES   0.0000
9401 H -9.62245 -12.3352 -12.3017 H 1 RES   0.0000
9402 H 7.80384 8.31773 4.00175 H 1 RES   0.0000
9403 H -10.5528 2.05989 -13.5165 H 1 RES   0.0000
9404 H -13.5337 2.43462 0.835017 H 1 RES   0.0000
9405 H 9.22947 -7.40173 -13.3174 H 1 RES   0.0000
9406 H -13.2368 7.76986 -4.44268 H 1 RES   0.0000
9407 H -13.3954 8.8767 -0.654844 H 1 RES   0.0000
9408 H -4.0036 -4.08616 13.2526 H 1 RES   0.0000
9409 H -2.76819 1.19584 12.851 H 1 RES   0.0000
9410 H -5.37884 -8.7865 -5.58386 H 1 RES   0.0000
9411 H -3.74794 14.2226 9.24264 H 1 RES   0.0000
9412 H -10.0905 -11.5574 12.3809 H 1 RES   0.0000
9413 H -10.6658 10.6483 -12.1571 H 1 RES   0.0000
9414 H -2.06326 11.5512 14.7553 H 1 RES   0.0000
9415 H 10.0743 11.5754 -8.42783 H 1 RES   0.0000
9416 H 1.8142 -4.7196 4.95825 H 1 RES   0.0000
9417 H 7.33009 14.1221 12.8827 H 1 RES   0.0000
9418 H 6.07921 -12.8768 -3.47207 H 1 RES   0.0000
9419 H 14.45 -1.88445 -0.554678 H 1 RES   0.0000
9420 H -8.14462 -12.6354 7.38858 H 1 RES   0.0000
9421 H -8.27897 -2.15123 6.54459 H 1 RES   0.0000
9422 H -0.0453473 10.4089 -2.32754 H 1 RES   0.0000
9423 H -0.342563 -9.21909 13.9385 H 1 RES   0.0000
9424 H 3.6177 8.623 -3.56135 H 1 RES   0.0000
9425 H -4.10126 10.2226 4.88039 H 1 RES   0.0000
9426 H 1.5603 1.13448 -8.36064 H 1 RES   0.0000
9427 H -11.4442 1.22074 -10.572 H 1 RES   0.0000
9428 H -5.11473 -5.50691 -8.40646 H 1 RES   0.0000
9429 H 11.844 -9.19691 10.6428 H 1 RES   0.0000
9430 H -2.39331 -14.4233 -5.08825 H 1 RES   0.0000
9431 H -1.27278 -2.7738 0.0933832 H 1 RES   0.0000
9432 H -14.4983 -5.01672 11.8511 H 1 RES   0.0000
9433 H -12.161 -13.8048 -8.12196 H 1 RES   0.0000
9434 H -11.1554 9.5459 4.8859 H 1 RES   0.0000
9435 H -10.3073 -9.49435 -0.443371 H 1 RES   0.0000
9436 H -2.68758 -9.48562 -14.7021 H 1 RES   0.0000
9437 H 0.0880152 0.860504 -12.6183 H 1 RES   0.0000
9438 H 12.9636 9.13507 1.49978 H 1 RES   0.0000
9439 H 13.4278 9.79032 -5.93674 H 1 RES   0.0000
9440 H 5.70986 -3.43247 1.32771 H 1 RES   0.0000
9441 H 1.76254 -5.97633 -2.57892 H 1 RES   0.0000
9442 H -6.72312 0.752407 3.50316 H 1 RES   0.0000
9443 H 7.16642 -3.70754 -11.9932 H 1 RES   0.0000
9444 H -10.1403 11.0626 -13.0623 H 1 RES   0.0000
9445 H -8.15284 -3.65776 -13.7275 H 1 RES   0.0000
9446 H 7.01335 7.65985 -9.99492 H 1 RES   0.0000
9447 H -7.11447 13.4125 -10.2636 H 1 RES   0.0000
9448 H -6.52831 -3.1791 8.5802 H 1 RES   0.0000
9449 H 10.2361 -7.12538 5.56897 H 1 RES   0.0000
9450 H 3.07126 -1.4917 4.60073 H 1 RES   0.0000
9451 H -0.510386 -10.2276 -12.8391 H 1 RES   0.0000
9452 H -14.457 0.513983 -11.9833 H 1 RES   0.0000
9453 H -12.2077 7.24407 -0.166395 H 1 RES   0.0000
9454 H 13.8028 13.775 0.157803 H 1 RES   0.0000
9455 H -14.5641 -5.69029 -6.83746 H 1 RES   0.0000
9456 H -11.4301 10.2453 -13.8812 H 1 RES   0.0000
9457 H -8.88453 12.2254 -0.594663 H 1 RES   0.0000
9458 H -8.31578 -4.07935 -9.2792 H 1 RES   0.0000
9459 H -12.5036 -12.2352 5.56679 H 1 RES   0.0000
9460 H 12.1129 -9.44724 -4.39864 H 1 RES   0.0000
9461 H -2.33573 7.91827 12.7952 H 1 RES   0.0000
9462 H 7.52372 10.3454 -4.3655 H 1 RES   0.0000
9463 H -3.31928 -11.124 13.9776 H 1 RES   0.0000
9464 H -11.576 13.0263 8.8106 H 1 RES   0.0000
9465 H 11.7567 -2.92985 -5.23466 H 1 RES   0.0000
9466 H -12.1826 9.31951 -9.03463 H 1 RES   0.0000
9467 H 5.3513 12.8386 11.4325 H 1 RES   0.0000
9468 H 8.61818 0.441533 -2.25682 H 1 RES   0.0000
9469 H -13.8992 -0.956106 -12.8498 H 1 RES   0.0000
9470 H 13.6791 -12.7874 3.51065 H 1 RES   0.0000
9471 H 13.7207 -9.48451 0.950227 H 1 RES   0.0000
9472 H -8.32949 4.0491 -8.29909 H 1 RES   0.0000
9473 H -2.04456 13.6709 2.1731 H 1 RES   0.0000
9474 H -10.5568 -10.534 3.76846 H 1 RES   0.0000
9475 H 9.95588 -5.37781 -1.10512 H 1 RES   0.0000
9476 H -8.69466 8.51914 13.8877 H 1 RES   0.0000
9477 H -9.88923 -4.00821 -3.62137 H 1 RES   0.0000
9478 H 11.3912 7.73424 -9.39838 H 1 RES   0.0000
9479 H -11.0629 12.8309 -6.11838 H 1 RES   0.0000
9480 H 12.5027 -2.50441 -13.0667 H 1 RES   0.0000
9481 H -8.71341 14.3641 3.28554 H 1 RES   0.0000
9482 H 7.28611 2.77876 13.0565 H 1 RES   0.0000
9483 H -8.76869 8.2304 11.2879 H 1 RES   0.0000
9484 H -8.90137 -13.1647 -3.00378 H 1 RES   0.0000
9485 H -0.791438 11.6819 -8.35223 H 1 RES   0.0000
9486 H -12.4832 -10.3554 14.2372 H 1 RES   0.0000
9487 H -3.08197 10.4061 13.5671 H 1 RES   0.0000
9488 H -3.49848 6.18586 6.63817 H 1 RES   0.0000
9489 H 12.323 -1.62419 -6.07539 H 1 RES   0.0000
9490 H 1.8159 2.17778 2.34263 H 1 RES   0.0000
9491 H -10.1507 -0.826317 -11.3775 H 1 RES   0.0000
9492 H 6.34851 1.66507 -11.8291 H 1 RES   0.0000
9493 H -11.1871 -2.1369 9.49385 H 1 RES   0.0000
9494 H -13.2301 -8.13095 -9.89916 H 1 RES   0.0000
9495 H -6.99164 11.1383 -10.883 H 1 RES   0.0000
9496 H -5.06022 14.1551 2.96951 H 1 RES   0.0000
9497 H -6.01836 10.2532 -13.0775 H 1 RES   0.0000
9498 H -1.38571 -8.90244 -12.8103 H 1 RES   0.0000
9499 H -1.18033 -4.53646 1.7178 H 1 RES   0.0000
9500 H -10.0615 11.9784 0.927135 H 1 RES   0.0000
9501 H 3.34635 -10.7385 12.968 H 1 RES   0.0000
9502 H -0.391126 7.60057 -7.58899 H 1 RES   0.0000
9503 H -13.1168 1.53161 5.24519 H 1 RES   0.0000
9504 H -9.82438 9.99222 7.79117 H 1 RES   0.0000
9505 H 8.3678 7.60813 11.7201 H 1 RES   0.0000
9506 H -3.75209 11.3606 9.20659 H 1 RES   0.0000
9507 H -7.00477 6.71284 -11.9545 H 1 RES   0.0000
9508 H -8.81995 -14.7608 -7.2373 H 1 RES   0.0000
9509 H -13.5216 -5.24541 -3.73185 H 1 RES   0.0000
9510 H -3.28829 -8.37785 -12.3584 H 1 RES   0.0000
9511 H 9.86071 1.9956 -11.1842 H 1 RES   0.0000
9512 H 10.966 -13.3875 -7.10289 H 1 RES   0.0000
9513 H 13.5303 -3.28671 -6.63811 H 1 RES   0.0000
9514 H -5.98254 1.67522 -2.81889 H 1 RES   0.0000
9515 H -14.2189 11.2383 10.3804 H 1 RES   0.0000
9516 H 11.9067 -10.9449 2.74887 H 1 RES   0.0000
9517 H 4.59342 0.930825 2.94639 H 1 RES   0.0000
9518 H 9.32779 3.07404 -13.6167 H 1 RES   0.0000
9519 H 8.33857 5.72403 -8.78277 H 1 RES   0.0000
9520 H 5.22577 1.12487 0.865431 H 1 RES   0.0000
9521 H -1.87396 6.30946 8.93491 H 1 RES   0.0000
9522 H -6.81488 -0.237858 13.295 H 1 RES   0.0000
9523 H 1.90913 6.76615 -4.7465 H 1 RES   0.0000
9524 H 13.5767 5.70225 2.27375 H 1 RES   0.0000
9525 H 8.31064 -5.58133 -9.94557 H 1 RES   0.0000
9526 H 9.3285 -5.3444 -8.34663 H 1 RES   0.0000
9527 H 1.86208 -11.971 9.63919 H 1 RES   0.0000
9528 H 11.5375 -5.6241 -7.70367 H 1 RES   0.0000
9529 H 8.62248 11.5032 -4.09685 H 1 RES   0.0000
9530 H -7.35204 -12.8156 -7.82606 H 1 RES   0.0000
9531 H 11.6139 12.1692 6.52708 H 1 RES   0.0000
9532 H 4.20062 -0.476178 -1.03681 H 1 RES   0.0000
9533 H -13.9759 -9.29516 2.51043 H 1 RES   0.0000
9534 H 13.5004 -12.2073 -11.5257 H 1 RES   0.0000
9535 H 11.4115 -6.35442 -14.4797 H 1 RES   0.0000
9536 H 6.40842 2.77402 11.7536 H 1 RES   0.0000
9537 H -10.1109 6.98781 -10.4045 H 1 RES   0.0000
9538 H -13.55 9.96251 -11.7642 H 1 RES   0.0000
9539 H 14.0865 -8.34003 14.2293 H 1 RES   0.0000
9540 H 4.00181 3.81402 4.2956 H 1 RES   0.0000
9541 H 12.0521 4.62458 11.2008 H 1 RES   0.0000
9542 H -12.6579 2.20091 1.24438 H 1 RES   0.0000
9543 H -3.83221 1.01784 -5.53588 H 1 RES   0.0000
9544 H -12.5199 10.2954 -7.5497 H 1 RES   0.0000
9545 H -9.23015 -2.0727 -11.229 H 1 RES   0.0000
9546 H -1.46774 -6.29303 10.9658 H 1 RES   0.0000
9547 H 2.00418 8.57914 -14.5321 H 1 RES   0.0000
9548 H 6.62475 -2.82869 -0.532221 H 1 RES   0.0000
9549 H 3.89943 12.6318 14.2048 H 1 RES   0.0000
9550 H 6.11643 -10.8561 0.741414 H 1 RES   0.0000
9551 H -9.25297 -1.7739 -9.84848 H 1 RES   0.0000
9552 H -7.8383 3.68251 4.50293 H 1 RES   0.0000
9553 H 9.97157 -13.0521 4.4984 H 1 RES   0.0000
9554 H -0.194155 4.4572 3.64547 H 1 RES   0.0000
9555 H -13.4609 14.0399 9.5967 H 1 RES   0.0000
9556 H 10.1843 7.12015 3.92783 H 1 RES   0.0000
9557 H -14.3583 -12.9035 -1.52833 H 1 RES   0.0000
9558 H 8.97543 10.5229 4.44459 H 1 RES   0.0000
9559 H 12.4259 -8.80448 -10.4418 H 1 RES   0.0000
9560 H -1.37505 12.3273 -3.78076 H 1 RES   0.0000
9561 H -8.42918 -10.3077 -6.82985 H 1 RES   0.0000
9562 H 14.6761 5.71808 -14.1413 H 1 RES   0.0000
9563 H -10.1229 -7.98214 3.51594 H 1 RES   0.0000
9564 H -7.40005 -0.610839 0.924826 H 1 RES   0.0000
9565 H -3.79438 4.57308 14.1352 H 1 RES   0.0000
9566 H -12.39 -10.1183 -14.4423 H 1 RES   0.0000
9567 H -1.36756 2.15229 -13.0292 H 1 RES   0.0000
9568 H 0.840714 13.122 13.3699 H 1 RES   0.0000
9569 H 9.10648 -9.70182 4.53729 H 1 RES   0.0000
9570 H 14.534 -9.3859 -14.4031 H 1 RES   0.0000
9571 H -5.27767 6.82969 -3.0927 H 1 RES   0.0000
9572 H 4.30078 1.36655 -4.75564 H 1 RES   0.0000
9573 H -9.5267 6.60754 14.4833 H 1 RES   0.0000
9574 H 3.98008 3.24236 -2.51425 H 1 RES   0.0000
9575 H -7.02645 -14.3682 -14.1925 H 1 RES   0.0000
9576 H 7.92131 7.99037 -5.73381 H 1 RES   0.0000
9577 H -7.71372 -1.16785 -6.83377 H 1 RES   0.0000
9578 H -10.4808 7.17642 5.7956 H 1 RES   0.0000
9579 H -1.51508 -9.63013 -9.39573 H 1 RES   0.0000
9580 H 12.0895 -3.20481 -10.1382 H 1 RES   0.0000
9581 H 9.86851 8.26845 4.3964 H 1 RES   0.0000
9582 H 7.71005 13.4353 12.1883 H 1 RES   0.0000
9583 H 3.04773 -0.0914219 14.7942 H 1 RES   0.0000
9584 H 6.33541 -9.10849 7.6986 H 1 RES   0.0000
9585 H 12.0328 -4.18121 6.31773 H 1 RES   0.0000
9586 H -13.0508 9.24605 11.8943 H 1 RES   0.0000
9587 H 7.88029 2.80413 -8.8051 H 1 RES   0.0000
9588 H -1.58625 -6.87196 12.2454 H 1 RES   0.0000
9589 H 6.20186 -6.01723 7.00227 H 1 RES   0.0000
9590 H -0.552588 3.78516 -8.47996 H 1 RES   0.0000
9591 H 13.164 0.0184933 12.5926 H 1 RES   0.0000
9592 H -12.2005 -6.56625 -11.798 H 1 RES   0.0000
9593 H -7.08841 -13.1124 7.01159 H 1 RES   0.0000
9594 H 2.32513 -5.8863 3.64806 H 1 RES   0.0000
9595 H 13.1617 0.869038 -0.455509 H 1 RES   0.0000
9596 H 9.4602 -2.59257 0.350968 H 1 RES   0.0000
9597 H 7.25679 -3.43164 -5.43733 H 1 RES   0.0000
9598 H -9.94754 -8.45624 12.8707 H 1 RES   0.0000
9599 H 4.16756 -12.437 -0.146633 H 1 RES   0.0000
9600 H 5.26751 -6.41918 -6.0359 H 1 RES   0.0000
9601 H 2.11289 -11.1239 3.51048 H 1 RES   0.0000
9602 H -10.6045 -2.58599 -13.8754 H 1 RES   0.0000
9603 H 12.6978 3.20744 12.7832 H 1 RES   0.0000
9604 H 5.06973 -2.1079 5.46883 H 1 RES   0.0000
9605 H 9.33197 -9.02027 -11.021 H 1 RES   0.0000
9606 H 8.27375 1.66183 13.1287 H 1 RES   0.0000
9607 H 10.9249 -5.0746 3.10331 H 1 RES   0.0000
9608 H 2.1 -14.8137 8.88079 H 1 RES   0.0000
9609 H 10.1834 -7.28938 -5.74579 H 1 RES   0.0000
9610 H 6.68646 -9.79974 -5.07476 H 1 RES   0.0000
9611 H -4.27961 0.465272 -12.8686 H 1 RES   0.0000
9612 H -11.3066 -14.6364 5.70222 H 1 RES   0.0000
9613 H 14.437 9.30932 3.69522 H 1 RES   0.0000
9614 H -3.31203 -1.12736 -8.6284 H 1 RES   0.0000
9615 H 12.9716 -4.592 -12.5362 H 1 RES   0.0000
9616 H 5.96647 -13.5272 -8.40906 H 1 RES   0.0000
9617 H -3.79168 -9.29835 10.8809 H 1 RES   0.0000
9618 H 6.88205 -0.230956 7.57297 H 1 RES   0.0000
9619 H -1.37295 -3.12456 2.91622 H 1 RES   0.0000
9620 H 6.93141 7.98363 -0.115784 H 1 RES   0.0000
9621 H 13.59 -2.92565 -13.8422 H 1 RES   0.0000
9622 H 2.71013 10.4714 9.47079 H 1 RES   0.0000
9623 H -3.8877 -10.6512 -4.51609 H 1 RES   0.0000
9624 H -0.976068 -0.999528 -6.83931 H 1 RES   0.0000
9625 H -4.83386 -4.95154 -14.0989 H 1 RES   0.0000
9626 H 13.7091 1.41587 -2.22023 H 1 RES   0.0000
9627 H 14.7726 0.0901181 14.5931 H 1 RES   0.0000
9628 H -3.66105 11.7747 -12.0236 H 1 RES   0.0000
9629 H 0.653335 10.9748 8.49152 H 1 RES   0.0000
9630 H -12.4061 -2.40902 -3.27613 H 1 RES   0.0000
9631 H -0.439815 -7.59966 -0.985648 H 1 RES   0.0000
9632 H -6.04101 2.44336 0.374648 H 1 RES   0.0000
9633 H -4.09369 -6.92571 -9.37673 H 1 RES   0.0000
9634 H 10.6084 8.8255 -7.99646 H 1 RES   0.0000
9635 H -14.5325 -14.6769 1.33982 H 1 RES   0.0000
9636 H 11.8852 -12.2548 2.31891 H 1 RES   0.0000
9637 H -6.06499 0.935253 -14.4015 H 1 RES   0.0000
9638 H 0.0941035 13.763 4.87624 H 1 RES   0.0000
9639 H 11.046 -14.1231 -8.71823 H 1 RES   0.0000
9640 H -10.0194 -12.2202 5.16325 H 1 RES   0.0000
9641 H -14.7292 3.55044 -12.144 H 1 RES   0.0000
9642 H 1.84723 -3.50706 -0.429273 H 1 RES   0.0000
9643 H 4.04609 -8.34553 -9.68819 H 1 RES   0.0000
9644 H -6.20283 10.5681 0.433842 H 1 RES   0.0000
9645 H -2.07711 -8.55222 -8.43254 H 1 RES   0.0000
9646 H -4.02767 -3.57425 -7.08057 H 1 RES   0.0000
9647 H 6.36244 -7.81242 -4.52425 H 1 RES   0.0000
9648 H 1.05669 -13.17 -1.09947 H 1 RES   0.0000
9649 H 14.0856 0.960204 9.3167 H 1 RES   0.0000
9650 H 3.99882 -12.5162 -11.7321 H 1 RES   0.0000
9651 H 2.53645 11.6625 0.384546 H 1 RES   0.0000
9652 H 11.1912 -13.6889 10.7495 H 1 RES   0.0000
9653 H -3.42297 -7.52437 5.01221 H 1 RES   0.0000
9654 H -12.7723 2.40767 -8.11593 H 1 RES   0.0000
9655 H -6.61995 -13.5854 4.69763 H 1 RES   0.0000
9656 H -9.86356 -13.236 -8.6529 H 1 RES   0.0000
9657 H 1.09885 -13.5632 1.57511 H 1 RES   0.0000
9658 H -7.84247 -14.4978 3.0337 H 1 RES   0.0000
9659 H 8.6109 -3.74664 -6.72348 H 1 RES   0.0000
9660 H 6.33296 -2.96929 -12.253 H 1 RES   0.0000
9661 H 13.2363 -11.1853 2.30995 H 1 RES   0.0000
9662 H 6.66101 2.18238 -9.89162 H 1 RES   0.0000
9663 H -2.79654 6.78596 -9.64713 H 1 RES   0.0000
9664 H 10.6017 10.7989 7.58616 H 1 RES   0.0000
9665 H -4.29161 -10.0207 -3.47918 H 1 RES   0.0000
9666 H 10.2199 -8.37569 -14.6865 H 1 RES   0.0000
9667 H -5.07978 4.89884 2.18097 H 1 RES   0.0000
9668 H -10.5091 -6.78313 -4.47931 H 1 RES   0.0000
9669 H -8.31569 -12.7849 -5.29765 H 1 RES   0.0000
9670 H -14.5125 13.2034 -2.61911 H 1 RES   0.0000
9671 H -2.84433 -8.77494 -5.56382 H 1 RES   0.0000
9672 H 14.1682 0.0468912 -13.4946 H 1 RES   0.0000
9673 H 12.2237 -3.10067 1.16074 H 1 RES   0.0000
9674 H 9.59232 -5.11285 -9.25965 H 1 RES   0.0000
9675 H 5.53369 -1.17571 1.22181 H 1 RES   0.0000
9676 H 3.62033 -3.69325 -2.24473 H 1 RES   0.0000
9677 H 10.7482 5.92032 10.0814 H 1 RES   0.0000
9678 H -8.43095 -4.48036 8.42608 H 1 RES   0.0000
9679 H -3.43999 -2.18987 -1.40177 H 1 RES   0.0000
9680 H 9.86906 -1.35115 -12.133 H 1 RES   0.0000
9681 H -6.38429 1.85266 3.97855 H 1 RES   0.0000
9682 H -4.27318 3.59787 9.01836 H 1 RES   0.0000
9683 H 10.1962 -7.99833 -2.96147 H 1 RES   0.0000
9684 H 7.00228 2.68935 8.35973 H 1 RES   0.0000
9685 H 0.217297 7.49014 8.1352 H 1 RES   0.0000
9686 H 2.50984 -6.68328 -9.37685 H 1 RES   0.0000
9687 H 12.6193 -7.77395 -10.0249 H 1 RES   0.0000
9688 H 11.4884 -5.25591 -2.29422 H 1 RES   0.0000
9689 H -9.41041 -1.94163 -8.58478 H 1 RES   0.0000
9690 H 8.91862 -12.7491 4.33289 H 1 RES   0.0000
9691 H -14.4661 -7.44988 -10.5696 H 1 RES   0.0000
9692 H 10.7135 -13.312 -3.04933 H 1 RES   0.0000
9693 H 9.9296 6.22523 14.5081 H 1 RES   0.0000
9694 H -14.8002 -2.25701 14.7662 H 1 RES   0.0000
9695 H -12.0164 1.15114 -2.14708 H 1 RES   0.0000
9696 H -10.784 -0.569359 -8.82836 H 1 RES   0.0000
9697 H -1.64358 -8.47505 11.7501 H 1 RES   0.0000
9698 H 2.3957 0.52726 -0.651041 H 1 RES   0.0000
9699 H -0.0852131 -14.8362 3.54774 H 1 RES   0.0000
9700 H -5.47992 -2.77527 -3.77738 H 1 RES   0.0000
9701 H -0.389986 1.46672 6.59212 H 1 RES   0.0000
9702 H 5.57683 -10.2114 7.54005 H 1 RES   0.0000
9703 H -14.7579 -3.5075 -9.75992 H 1 RES   0.0000
9704 H -13.9552 5.17513 8.82954 H 1 RES   0.0000
9705 H 4.32437 3.35468 11.6444 H 1 RES   0.0000
9706 H -6.65277 1.05025 -11.9939 H 1 RES   0.0000
9707 H 1.78213 10.8178 6.68617 H 1 RES   0.0000
9708 H 6.90923 8.31227 -4.53669 H 1 RES   0.0000
9709 H 2.54853 7.8164 -7.99867 H 1 RES   0.0000
9710 H 1.07264 -14.0468 4.10485 H 1 RES   0.0000
9711 H 2.06963 -11.7401 -6.25885 H 1 RES   0.0000
9712 H -1.83085 -5.96423 7.552 H 1 RES   0.0000
9713 H 13.5714 -0.237125 -2.98288 H 1 RES   0.0000
9714 H -13.3541 -12.5546 -1.61325 H 1 RES   0.0000
9715 H 1.47389 -10.4216 0.343107 H 1 RES   0.0000
9716 H 4.44503 2.95843 -5.258 H 1 RES   0.0000
9717 H -12.8491 7.24026 1.35115 H 1 RES   0.0000
9718 H -9.01251 13.1001 -8.44754 H 1 RES   0.0000
9719 H -10.5752 -6.31041 9.43401 H 1 RES   0.0000
9720 H -8.21371 -1.44533 9.63281 H 1 RES   0.0000
9721 H 7.76746 11.593 5.87403 H 1 RES   0.0000
9722 H -9.38861 6.33159 -7.74753 H 1 RES   0.0000
9723 H 11.5827 -11.8185 -1.51567 H 1 RES   0.0000
9724 H 0.0135925 -8.95302 -13.0324 H 1 RES   0.0000
9725 H 13.0247 10.8832 1.88991 H 1 RES   0.0000
9726 H -11.3327 11.3894 -14.1313 H 1 RES   0.0000
9727 H 6.90387 -7.02893 -11.3104 H 1 RES   0.0000
9728 H 10.0153 -12.582 -3.99241 H 1 RES   0.0000
9729 H -11.7046 7.7912 -5.30214 H 1 RES   0.0000
9730 H -12.2823 -2.23696 2.12808 H 1 RES   0.0000
9731 H 11.8936 -3.32347 -12.7665 H 1 RES   0.0000
9732 H -8.84561 2.94965 -4.16612 H 1 RES   0.0000
9733 H 0.706793 12.2889 12.4672 H 1 RES   0.0000
9734 H -12.812 10.4238 13.3803 H 1 RES   0.0000
9735 H -1.01099 0.985794 -5.13356 H 1 RES   0.0000
9736 H -10.2429 -5.79915 10.9032 H 1 RES   0.0000
9737 H 9.61709 14.7564 -1.0979 H 1 RES   0.0000
9738 H 11.4413 -13.1223 4.62418 H 1 RES   0.0000
9739 H -3.07613 -2.99502 -1.97925 H 1 RES   0.0000
9740 H -6.38694 -14.3455 -10.6472 H 1 RES   0.0000
9741 H -12.907 8.64963 14.6438 H 1 RES   0.0000
9742 H -10.1758 -0.863989 -12.5941 H 1 RES   0.0000
9743 H -11.9237 3.77202 -2.82794 H 1 RES   0.0000
9744 H -1.8614 6.83089 -0.677151 H 1 RES   0.0000
9745 H -7.35031 -13.7924 1.56891 H 1 RES   0.0000
9746 H 2.73289 -11.9236 -1.27302 H 1 RES   0.0000
9747 H -7.73304 -2.45272 7.8019 H 1 RES   0.0000
9748 H 13.1257 -2.97126 -7.4893 H 1 RES   0.0000
9749 H 5.54521 -0.0910784 10.2134 H 1 RES   0.0000
9750 H 7.01788 -14.6298 -11.131 H 1 RES   0.0000
9751 H 4.06636 5.26209 -13.7656 H 1 RES   0.0000
9752 H -14.4864 -1.36918 10.4868 H 1 RES   0.0000
9753 H -6.92419 1.9098 13.7988 H 1 RES   0.0000
9754 H -7.53559 4.03863 -0.534951 H 1 RES   0.0000
9755 H -14.4426 8.06764 -13.288 H 1 RES   0.0000
9756 H -13.6102 8.27588 -1.71586 H 1 RES   0.0000
9757 H -7.07288 1.95132 -14.4297 H 1 RES   0.0000
9758 H -12.2601 -7.66294 -10.0784 H 1 RES   0.0000
9759 H 11.6372 11.5795 14.0221 H 1 RES   0.0000
9760 H 10.209 14.1955 12.8772 H 1 RES   0.0000
9761 H 6.70986 -4.03898 1.97329 H 1 RES   0.0000
9762 H 5.77111 -0.416162 4.96292 H 1 RES   0.0000
9763 H -11.6198 4.98957 -12.1827 H 1 RES   0.0000
9764 H -6.55333 -2.95172 -8.29657 H 1 RES   0.0000
9765 H -5.38576 9.23965 13.3853 H 1 RES   0.0000
9766 H -8.47602 7.19382 12.682 H 1 RES   0.0000
9767 H 12.6131 12.784 4.63754 H 1 RES   0.0000
9768 H -11.3057 -5.4787 0.794968 H 1 RES   0.0000
9769 H -12.9557 -5.74576 5.14557 H 1 RES   0.0000
9770 H 5.89016 9.07989 2.07823 H 1 RES   0.0000
9771 H 5.02925 9.41154 9.01392 H 1 RES   0.0000
9772 H -11.1868 1.16376 -13.1618 H 1 RES   0.0000
9773 H -13.0732 -0.479845 -11.4644 H 1 RES   0.0000
9774 H -10.2388 0.6185 7.01886 H 1 RES   0.0000
9775 H -2.36057 13.1021 14.0831 H 1 RES   0.0000
9776 H -13.3527 -13.6791 14.4181 H 1 RES   0.0000
9777 H -9.41865 4.94168 -10.7971 H 1 RES   0.0000
9778 H -11.4711 11.5608 -11.9381 H 1 RES   0.0000
9779 H -14.2191 10.9929 -5.91449 H 1 RES   0.0000
9780 H 7.44796 -13.4267 -10.5522 H 1 RES   0.0000
9781 H -1.55683 -11.8432 -1.85724 H 1 RES   0.0000
9782 H 2.86913 11.2481 3.30682 H 1 RES   0.0000
9783 H -2.96477 7.79583 -8.92219 H 1 RES   0.0000
9784 H -3.3209 4.86949 11.8969 H 1 RES   0.0000
9785 H -1.44401 14.643 11.913 H 1 RES   0.0000
9786 H 8.91819 -7.58303 -2.31659 H 1 RES   0.0000
9787 H -4.7339 7.53012 -3.77211 H 1 RES   0.0000
9788 H 8.06063 9.0302 -7.38914 H 1 RES   0.0000
9789 H -5.74868 -9.00094 -1.19867 H 1 RES   0.0000
9790 H 3.91947 -5.66175 1.4793 H 1 RES   0.0000
9791 H 6.41401 8.69122 -6.54827 H 1 RES   0.0000
9792 H 5.53039 -0.663161 -4.48568 H 1 RES   0.0000
9793 H -8.57025 13.2171 -6.46922 H 1 RES   0.0000
9794 H -7.52451 6.98986 -13.1804 H 1 RES   0.0000
9795 H 8.3722 -4.03678 -2.18082 H 1 RES   0.0000
9796 H -7.29206 5.87576 -4.05648 H 1 RES   0.0000
9797 H 6.7942 7.88975 -6.01812 H 1 RES   0.0000
9798 H -5.08094 11.347 11.4043 H 1 RES   0.0000
9799 H -13.657 -11.2653 -13.9817 H 1 RES   0.0000
9800 H -7.76842 -7.76553 -7.05823 H 1 RES   0.0000
9801 H -12.0576 -10.3931 -9.23074 H 1 RES   0.0000
9802 H -3.39626 3.93707 -14.2763 H 1 RES   0.0000
9803 H 3.61679 -0.632404 -9.54968 H 1 RES   0.0000
9804 H 12.993 -14.7379 -1.01111 H 1 RES   0.0000
9805 H 0.755558 8.5755 7.83492 H 1 RES   0.0000
9806 H 9.40554 2.52175 9.35062 H 1 RES   0.0000
9807 H 7.67118 9.2357 0.621916 H 1 RES   0.0000
9808 H -11.04 6.46962 -10.0634 H 1 RES   0.0000
9809 H 13.5701 4.64477 2.86971 H 1 RES   0.0000
9810 H -3.62955 -5.59635 -6.54478 H 1 RES   0.0000
9811 H -12.9024 10.4019 2.86227 H 1 RES   0.0000
9812 H 2.75797 -1.0578 7.12856 H 1 RES   0.0000
9813 H -10.5431 -9.33314 -6.01078 H 1 RES   0.0000
9814 H 5.07404 -7.31497 -10.3302 H 1 RES   0.0000
9815 H -10.4984 2.88061 -6.48099 H 1 RES   0.0000
9816 H -6.61089 -6.71368 6.62945 H 1 RES   0.0000
9817 H 14.5238 10.5256 -9.85394 H 1 RES   0.0000
9818 H -8.1378 0.477611 7.76276 H 1 RES   0.0000
9819 H -6.60154 -9.55357 -3.70484 H 1 RES   0.0000
9820 H 6.60081 -10.9094 -3.82961 H 1 RES   0.0000
9821 H 7.37206 11.2274 8.85885 H 1 RES   0.0000
9822 H 14.3594 -0.656041 5.3181 H 1 RES   0.0000
9823 H 11.0267 -4.14919 3.8299 H 1 RES   0.0000
9824 H 4.13798 1.64747 8.77411 H 1 RES   0.0000
9825 H 6.81955 -2.4173 -3.82506 H 1 RES   0.0000
9826 H -2.11478 -9.61098 -1.45779 H 1 RES   0.0000
9827 H 0.17973 -3.89532 10.0386 H 1 RES   0.0000
9828 H 11.6102 -10.522 -6.93343 H 1 RES   0.0000
9829 H 10.0792 -1.13062 5.94164 H 1 RES   0.0000
9830 H -12.6431 -7.8264 6.74513 H 1 RES   0.0000
9831 H -3.98031 -0.187709 13.1864 H 1 RES   0.0000
9832 H 12.2793 -2.96027 -13.9569 H 1 RES   0.0000
9833 H 11.8041 13.9122 -0.3368 H 1 RES   0.0000
9834 H 8.40781 1.58281 -2.71507 H 1 RES   0.0000
9835 H -10.5374 -11.4949 11.4522 H 1 RES   0.0000
9836 H 10.6175 -1.58556 -0.686367 H 1 RES   0.0000
9837 H -2.71492 10.0229 -7.31717 H 1 RES   0.0000
9838 H 8.02096 2.13654 10.1636 H 1 RES   0.0000
9839 H 5.7764 -2.42632 8.55793 H 1 RES   0.0000
9840 H -12.3927 -8.87016 6.09932 H 1 RES   0.0000
9841 H 14.4707 -7.58029 -3.64669 H 1 RES   0.0000
9842 H 10.8972 7.68025 -7.85881 H 1 RES   0.0000
9843 H 3.68329 0.908893 -2.2794 H 1 RES   0.0000
9844 H -9.31797 7.9101 -14.3187 H 1 RES   0.0000
9845 H 2.53376 11.7307 14.0473 H 1 RES   0.0000
9846 H -1.17587 -0.517851 12.8253 H 1 RES   0.0000
9847 H -13.5959 -13.4786 -3.24612 H 1 RES   0.0000
9848 H -12.4845 13.7003 -14.2187 H 1 RES   0.0000
9849 H 5.98642 3.49905 4.7606 H 1 RES   0.0000
9850 H -11.5242 -13.9395 4.71328 H 1 RES   0.0000
9851 H 14.2177 2.86305 8.06168 H 1 RES   0.0000
9852 H 12.2056 -4.42464 -13.5609 H 1 RES   0.0000
9853 H -11.6125 4.31992 11.9859 H 1 RES   0.0000
9854 H 5.45578 0.333679 14.8289 H 1 RES   0.0000
9855 H 12.2153 -0.27162 -10.1763 H 1 RES   0.0000
9856 H -5.68914 -2.5917 -1.11241 H 1 RES   0.0000
9857 H 1.79406 0.151879 3.40928 H 1 RES   0.0000
9858 H -0.396774 1.29809 8.04071 H 1 RES   0.0000
9859 H 12.3614 -1.01583 -8.37345 H 1 RES   0.0000
9860 H 6.39997 -14.5124 -0.564846 H 1 RES   0.0000
9861 H -8.26509 -1.7106 0.320435 H 1 RES   0.0000
9862 H -1.56938 -13.295 -7.14248 H 1 RES   0.0000
9863 H 9.4144 -10.6674 0.69171 H 1 RES   0.0000
9864 H 1.97939 4.63826 9.67064 H 1 RES   0.0000
9865 H -8.91318 10.9804 -5.7749 H 1 RES   0.0000
9866 H 13.7345 -3.81275 12.6588 H 1 RES   0.0000
9867 H -10.386 13.5745 -7.78337 H 1 RES   0.0000
9868 H -1.77882 9.41313 12.2993 H 1 RES   0.0000
9869 H -4.88816 14.1442 -10.573 H 1 RES   0.0000
9870 H 2.81804 -8.31365 -5.10751 H 1 RES   0.0000
9871 H -10.4819 6.14782 14.6501 H 1 RES   0.0000
9872 H 14.4567 -7.30898 11.5921 H 1 RES   0.0000
9873 H -11.6474 11.8099 -6.67613 H 1 RES   0.0000
9874 H -6.90759 10.3351 -3.88817 H 1 RES   0.0000
9875 H 2.00542 -5.32092 -11.2192 H 1 RES   0.0000
9876 H -2.73948 6.40089 7.57973 H 1 RES   0.0000
9877 H -2.80354 9.72984 -12.6949 H 1 RES   0.0000
9878 H 11.1408 8.3393 -12.8114 H 1 RES   0.0000
9879 H -13.6432 -14.5923 -11.2415 H 1 RES   0.0000
9880 H -2.70335 9.12813 11.743 H 1 RES   0.0000
9881 H 4.78062 -8.91362 10.1255 H 1 RES   0.0000
9882 H 0.25415 -4.85456 1.49174 H 1 RES   0.0000
9883 H -3.80203 -13.626 -1.8369 H 1 RES   0.0000
9884 H -14.1379 2.92501 10.0555 H 1 RES   0.0000
9885 H 9.80793 11.9537 -12.4129 H 1 RES   0.0000
9886 H -4.55377 2.68102 -4.24408 H 1 RES   0.0000
9887 H -4.93285 5.99752 -13.6045 H 1 RES   0.0000
9888 H -3.52735 8.41864 -11.4258 H 1 RES   0.0000
9889 H 4.57466 12.2529 10.084 H 1 RES   0.0000
9890 H -3.63126 10.0497 -14.0475 H 1 RES   0.0000
9891 H 6.01917 13.7208 -0.716141 H 1 RES   0.0000
9892 H -2.21224 -0.024827 6.00178 H 1 RES   0.0000
9893 H 10.9209 2.09226 -10.1824 H 1 RES   0.0000
9894 H -9.44737 1.86063 -5.01861 H 1 RES   0.0000
9895 H 1.7504 -11.0122 9.07923 H 1 RES   0.0000
9896 H 14.2925 7.12047 13.4703 H 1 RES   0.0000
9897 H -3.35279 -8.13325 -3.40886 H 1 RES   0.0000
9898 H 13.4102 -5.90192 -8.41235 H 1 RES   0.0000
9899 H 6.84794 5.66256 -9.56558 H 1 RES   0.0000
9900 H -8.77819 0.367788 13.9425 H 1 RES   0.0000
9901 H 5.16912 4.29716 -8.32323 H 1 RES   0.0000
9902 H -11.6712 5.72929 -7.4973 H 1 RES   0.0000
9903 H -7.79275 3.43116 1.74886 H 1 RES   0.0000
9904 H -12.6217 10.4521 -9.16974 H 1 RES   0.0000
9905 H 8.8024 -7.71595 -1.07845 H 1 RES   0.0000
9906 H -7.94556 13.5975 -9.51061 H 1 RES   0.0000
9907 H 6.05315 -9.37582 -4.39856 H 1 RES   0.0000
9908 H -7.04905 -3.09507 14.4997 H 1 RES   0.0000
9909 H -5.65138 -1.57998 -10.9536 H 1 RES   0.0000
9910 H -13.8809 1.86718 -7.22498 H 1 RES   0.0000
9911 H -10.2839 -1.83698 9.89633 H 1 RES   0.0000
9912 H 12.4926 3.74393 -13.2331 H 1 RES   0.0000
9913 H -3.22592 -13.1391 -2.64639 H 1 RES   0.0000
9914 H 13.8759 5.97468 6.18287 H 1 RES   0.0000
9915 H 0.957176 -3.0645 11.2352 H 1 RES   0.0000
9916 H -8.04473 -14.7755 -9.56851 H 1 RES   0.0000
9917 H -13.0593 -7.41614 -14.8224 H 1 RES   0.0000
9918 H 1.28122 9.74825 -5.09598 H 1 RES   0.0000
9919 H -10.8279 5.64298 -0.789119 H 1 RES   0.0000
9920 H 2.87706 -8.7847 -4.03087 H 1 RES   0.0000
9921 H 12.9785 12.3906 13.4778 H 1 RES   0.0000
9922 H 10.8957 6.34909 -11.7773 H 1 RES   0.0000
9923 H -6.27788 9.48792 -11.6891 H 1 RES   0.0000
9924 H -6.69117 3.63938 -2.28483 H 1 RES   0.0000
9925 H -2.70995 -5.46142 5.97511 H 1 RES   0.0000
9926 H 7.1226 3.61653 7.60875 H 1 RES   0.0000
9927 H 7.64185 -2.78363 -4.33866 H 1 RES   0.0000
9928 H 5.28931 14.345 8.45067 H 1 RES   0.0000
9929 H 14.7036 -2.03888 -12.7556 H 1 RES   0.0000
9930 H 2.19583 5.08306 12.057 H 1 RES   0.0000
9931 H 10.1943 3.42849 4.80568 H 1 RES   0.0000
9932 H -3.74349 -1.24553 2.51933 H 1 RES   0.0000
9933 H -7.89939 12.4903 -14.3246 H 1 RES   0.0000
9934 H 12.5714 9.37629 13.205 H 1 RES   0.0000
9935 H -2.69983 6.28204 -5.80299 H 1 RES   0.0000
9936 H 12.7501 5.79941 -4.30671 H 1 RES   0.0000
9937 H -9.74152 2.94946 5.60787 H 1 RES   0.0000
9938 H -6.24466 -11.6801 3.58379 H 1 RES   0.0000
9939 H 4.15806 -10.2014 3.13673 H 1 RES   0.0000
9940 H 0.270912 2.48528 -11.5521 H 1 RES   0.0000
9941 H 7.39933 9.43597 -0.461167 H 1 RES   0.0000
9942 H -1.08714 -3.68766 -5.85005 H 1 RES   0.0000
9943 H 3.28097 -0.572315 3.24898 H 1 RES   0.0000
9944 H 10.6855 -10.5633 8.48252 H 1 RES   0.0000
9945 H 1.25104 -3.32031 -1.40178 H 1 RES   0.0000
9946 H 5.67439 -5.98378 -13.7005 H 1 RES   0.0000
9947 H 7.90911 -1.33441 -14.4068 H 1 RES   0.0000
9948 H -11.6431 2.32819 -1.52279 H 1 RES   0.0000
9949 H -14.0816 0.0750462 13.2127 H 1 RES   0.0000
9950 H 13.5886 0.611718 -8.21847 H 1 RES   0.0000
9951 H 11.1704 14.634 13.4465 H 1 RES   0.0000
9952 H 12.3346 13.1667 13.0429 H 1 RES   0.0000
9953 H 5.22136 -5.09149 -4.43104 H 1 RES   0.0000
9954 H 3.82069 -7.52739 -4.57311 H 1 RES   0.0000
9955 H 5.26249 -5.36625 13.4608 H 1 RES   0.0000
9956 H -6.14299 -9.07167 4.27505 H 1 RES   0.0000
9957 H -3.05242 -1.19819 9.59178 H 1 RES   0.0000
9958 H 7.79532 -10.611 -0.37586 H 1 RES   0.0000
9959 H 6.70979 -7.2202 2.82239 H 1 RES   0.0000
9960 H 10.2693 13.7264 0.288957 H 1 RES   0.0000
9961 H 2.01402 7.08611 11.6171 H 1 RES   0.0000
9962 H -8.02366 -8.55478 0.197968 H 1 RES   0.0000
9963 H -7.8704 -10.5037 9.59766 H 1 RES   0.0000
9964 H 0.797629 5.89844 0.729876 H 1 RES   0.0000
9965 H -2.56188 3.25106 11.8778 H 1 RES   0.0000
9966 H -8.68967 6.53073 13.8216 H 1 RES   0.0000
9967 H -4.89969 -3.78078 -13.7939 H 1 RES   0.0000
9968 H -4.65934 -7.74121 13.1753 H 1 RES   0.0000
9969 H 9.63265 5.1558 -12.2525 H 1 RES   0.0000
9970 H 0.582764 9.79324 8.23818 H 1 RES   0.0000
9971 H -10.0161 9.62972 -9.98368 H 1 RES   0.0000
9972 H 6.6475 -9.26859 -6.94873 H 1 RES   0.0000
9973 H -14.15 3.36783 14.4135 H 1 RES   0.0000
9974 H 7.269 -8.27057 10.5975 H 1 RES   0.0000
9975 H 1.91499 6.22469 10.9765 H 1 RES   0.0000
9976 H -10.4707 2.4153 3.05773 H 1 RES   0.0000
9977 H 7.42399 8.58601 -10.2512 H 1 RES   0.0000
9978 H -2.69643 -8.44971 -1.41812 H 1 RES   0.0000
9979 H 0.93109 -10.4827 -7.13168 H 1 RES   0.0000
9980 H -7.69422 -10.6721 10.9745 H 1 RES   0.0000
9981 H -0.0663606 14.2983 11.8833 H 1 RES   0.0000
9982 H -14.4986 -3.1059 8.95189 H 1 RES   0.0000
9983 H 2.56417 -12.7371 4.76038 H 1 RES   0.0000
9984 H -7.80548 -14.024 5.13201 H 1 RES   0.0000
9985 H 14.187 0.143217 -3.97158 H 1 RES   0.0000
9986 H 9.48098 -12.8648 -13.553 H 1 RES   0.0000
9987 H -11.6184 -13.7633 3.31994 H 1 RES   0.0000
9988 H 14.0836 1.89419 11.3385 H 1 RES   0.0000
9989 H 7.86796 7.30667 3.43799 H 1 RES   0.0000
9990 H 3.07673 -0.145877 -11.6607 H 1 RES   0.0000
9991 H 3.6936 -3.21901 3.3285 H 1 RES   0.0000
9992 H 0.297237 4.20363 13.6952 H 1 RES   0.0000
9993 H 9.32484 -8.33384 -4.70096 H 1 RES   0.0000
9994 H 9.84888 -11.7269 -9.99646 H 1 RES   0.0000
9995 H -3.10177 -10.6951 -5.12688 H 1 RES   0.0000
9996 H 13.0575 5.39976 -12.7954 H 1 RES   0.0000
9997 H -11.0773 -11.2349 -9.11487 H 1 RES   0.0000
9998 H 8.88252 -11.2575 -4.41146 H 1 RES   0.0000
9999 H -10.2786 12.8634 3.58241 H 1 RES   0.0000
10000 H -4.69358 -7.15135 -10.902 H 1 RES   0.0000
@<TRIPOS>BOND
1 1 2 1
